data_XUFPIZ_clean_PM
_symmetry_space_group_name_H-M	'P1'
_cell_length_a	17.201000
_cell_length_b	23.810000
_cell_length_c	13.601000
_cell_angle_alpha	90.000000
_cell_angle_beta	90.000000
_cell_angle_gamma	90.000000
_symmetry_Int_Tables_number 1

loop_
_symmetry_equiv_pos_as_xyz
'x,y,z'

loop_
_atom_site_label
_atom_site_type_symbol
_atom_site_fract_x
_atom_site_fract_y
_atom_site_fract_z
Co11	Co1	0.351950	0.572570	0.516420
O11	O1	0.357100	0.493560	0.465600
O21	O2	0.309200	0.548210	0.348900
O31	O3	0.528000	0.094600	0.047700
O41	O4	0.614300	0.158100	0.018900
O51	O5	0.327500	0.313640	0.123800
N11	N1	0.403100	0.554960	0.650200
N21	N2	0.473700	0.504030	0.751400
N31	N3	0.638500	0.369940	0.874500
N41	N4	0.740300	0.406450	0.949200
C11	C1	0.333400	0.451600	0.309900
C21	C2	0.297100	0.453600	0.220600
H11	H1	0.271700	0.486300	0.201600
C31	C3	0.297400	0.407500	0.157400
H21	H2	0.272100	0.409200	0.097000
C41	C4	0.335600	0.359400	0.185900
C51	C5	0.373300	0.356700	0.275200
H31	H3	0.398900	0.324000	0.294100
C61	C6	0.372500	0.402900	0.336400
H41	H4	0.398600	0.401500	0.396200
C71	C7	0.332200	0.500600	0.376900
C81	C8	0.386600	0.274500	0.112700
C91	C9	0.363300	0.220300	0.096600
H51	H5	0.310500	0.212100	0.098800
C101	C10	0.414500	0.178000	0.077500
H61	H6	0.397500	0.141200	0.069400
C111	C11	0.492000	0.191400	0.070500
C121	C12	0.518500	0.245500	0.087400
H71	H7	0.571200	0.253800	0.083000
C131	C13	0.463500	0.288700	0.111700
H81	H8	0.479700	0.325100	0.126300
C141	C14	0.551500	0.142700	0.041800
C151	C15	0.442900	0.508100	0.661600
H91	H9	0.448900	0.481100	0.612800
C161	C16	0.453700	0.551800	0.799900
H101	H10	0.467300	0.561400	0.863900
C171	C17	0.409900	0.583200	0.736600
H111	H11	0.388300	0.618100	0.750500
C181	C18	0.519100	0.457400	0.789200
H121	H12	0.546400	0.469400	0.847900
H131	H13	0.557700	0.446800	0.740600
C191	C19	0.469400	0.405900	0.813900
C201	C20	0.504900	0.353500	0.818900
C211	C21	0.459500	0.306700	0.842900
H141	H14	0.482600	0.271400	0.846000
C221	C22	0.379800	0.312100	0.862300
H151	H15	0.350100	0.280500	0.876700
C231	C23	0.345900	0.364300	0.860100
H161	H16	0.293500	0.368500	0.875200
C241	C24	0.391000	0.410800	0.834900
H171	H17	0.367800	0.446000	0.832100
C251	C25	0.590200	0.345300	0.797600
H181	H18	0.601200	0.305400	0.792600
H191	H19	0.602800	0.362500	0.734900
C261	C26	0.709200	0.390900	0.864700
H201	H20	0.734500	0.394300	0.804600
C271	C27	0.684700	0.394700	0.015700
H211	H21	0.688500	0.401500	0.082900
C281	C28	0.622100	0.371400	0.970600
H221	H22	0.576700	0.358900	0.000600
Co21	Co2	0.148050	0.927430	0.516420
O61	O6	0.142900	0.006440	0.465600
O71	O7	0.190800	0.951790	0.348900
O81	O8	0.972000	0.405400	0.047700
O91	O9	0.885700	0.341900	0.018900
O101	O10	0.172500	0.186360	0.123800
N51	N5	0.096900	0.945040	0.650200
N61	N6	0.026300	0.995970	0.751400
N71	N7	0.861500	0.130060	0.874500
N81	N8	0.759700	0.093550	0.949200
C291	C29	0.166600	0.048400	0.309900
C301	C30	0.202900	0.046400	0.220600
H231	H23	0.228300	0.013700	0.201600
C311	C31	0.202600	0.092500	0.157400
H241	H24	0.227900	0.090800	0.097000
C321	C32	0.164400	0.140600	0.185900
C331	C33	0.126700	0.143300	0.275200
H251	H25	0.101100	0.176000	0.294100
C341	C34	0.127500	0.097100	0.336400
H261	H26	0.101400	0.098500	0.396200
C351	C35	0.167800	0.999400	0.376900
C361	C36	0.113400	0.225500	0.112700
C371	C37	0.136700	0.279700	0.096600
H271	H27	0.189500	0.287900	0.098800
C381	C38	0.085500	0.322000	0.077500
H281	H28	0.102500	0.358800	0.069400
C391	C39	0.008000	0.308600	0.070500
C401	C40	0.981500	0.254500	0.087400
H291	H29	0.928800	0.246200	0.083000
C411	C41	0.036500	0.211300	0.111700
H301	H30	0.020300	0.174900	0.126300
C421	C42	0.948500	0.357300	0.041800
C431	C43	0.057100	0.991900	0.661600
H311	H31	0.051100	0.018900	0.612800
C441	C44	0.046300	0.948200	0.799900
H321	H32	0.032700	0.938600	0.863900
C451	C45	0.090100	0.916800	0.736600
H331	H33	0.111700	0.881900	0.750500
C461	C46	0.980900	0.042600	0.789200
H341	H34	0.953600	0.030600	0.847900
H351	H35	0.942300	0.053200	0.740600
C471	C47	0.030600	0.094100	0.813900
C481	C48	0.995100	0.146500	0.818900
C491	C49	0.040500	0.193300	0.842900
H361	H36	0.017400	0.228600	0.846000
C501	C50	0.120200	0.187900	0.862300
H371	H37	0.149900	0.219500	0.876700
C511	C51	0.154100	0.135700	0.860100
H381	H38	0.206500	0.131500	0.875200
C521	C52	0.109000	0.089200	0.834900
H391	H39	0.132200	0.054000	0.832100
C531	C53	0.909800	0.154700	0.797600
H401	H40	0.898800	0.194600	0.792600
H411	H41	0.897200	0.137500	0.734900
C541	C54	0.790800	0.109100	0.864700
H421	H42	0.765500	0.105700	0.804600
C551	C55	0.815300	0.105300	0.015700
H431	H43	0.811500	0.098500	0.082900
C561	C56	0.877900	0.128600	0.970600
H441	H44	0.923300	0.141100	0.000600
Co31	Co3	0.648050	0.072570	0.983580
O111	O11	0.642900	0.993560	0.034400
O121	O12	0.690800	0.048210	0.151100
O131	O13	0.472000	0.594600	0.452300
O141	O14	0.385700	0.658100	0.481100
O151	O15	0.672500	0.813640	0.376200
N91	N9	0.596900	0.054960	0.849800
N101	N10	0.526300	0.004030	0.748600
N111	N11	0.361500	0.869940	0.625500
N121	N12	0.259700	0.906450	0.550800
C571	C57	0.666600	0.951600	0.190100
C581	C58	0.702900	0.953600	0.279400
H451	H45	0.728300	0.986300	0.298400
C591	C59	0.702600	0.907500	0.342600
H461	H46	0.727900	0.909200	0.403000
C601	C60	0.664400	0.859400	0.314100
C611	C61	0.626700	0.856700	0.224800
H471	H47	0.601100	0.824000	0.205900
C621	C62	0.627500	0.902900	0.163600
H481	H48	0.601400	0.901500	0.103800
C631	C63	0.667800	0.000600	0.123100
C641	C64	0.613400	0.774500	0.387300
C651	C65	0.636700	0.720300	0.403400
H491	H49	0.689500	0.712100	0.401200
C661	C66	0.585500	0.678000	0.422500
H501	H50	0.602500	0.641200	0.430600
C671	C67	0.508000	0.691400	0.429500
C681	C68	0.481500	0.745500	0.412600
H511	H51	0.428800	0.753800	0.417000
C691	C69	0.536500	0.788700	0.388300
H521	H52	0.520300	0.825100	0.373700
C701	C70	0.448500	0.642700	0.458200
C711	C71	0.557100	0.008100	0.838400
H531	H53	0.551100	0.981100	0.887200
C721	C72	0.546300	0.051800	0.700100
H541	H54	0.532700	0.061400	0.636100
C731	C73	0.590100	0.083200	0.763400
H551	H55	0.611700	0.118100	0.749500
C741	C74	0.480900	0.957400	0.710800
H561	H56	0.453600	0.969400	0.652100
H571	H57	0.442300	0.946800	0.759400
C751	C75	0.530600	0.905900	0.686100
C761	C76	0.495100	0.853500	0.681100
C771	C77	0.540500	0.806700	0.657100
H581	H58	0.517400	0.771400	0.654000
C781	C78	0.620200	0.812100	0.637700
H591	H59	0.649900	0.780500	0.623300
C791	C79	0.654100	0.864300	0.639900
H601	H60	0.706500	0.868500	0.624800
C801	C80	0.609000	0.910800	0.665100
H611	H61	0.632200	0.946000	0.667900
C811	C81	0.409800	0.845300	0.702400
H621	H62	0.398800	0.805400	0.707400
H631	H63	0.397200	0.862500	0.765100
C821	C82	0.290800	0.890900	0.635300
H641	H64	0.265500	0.894300	0.695400
C831	C83	0.315300	0.894700	0.484300
H651	H65	0.311500	0.901500	0.417100
C841	C84	0.377900	0.871400	0.529400
H661	H66	0.423300	0.858900	0.499400
Co41	Co4	0.851950	0.427430	0.983580
O161	O16	0.857100	0.506440	0.034400
O171	O17	0.809200	0.451790	0.151100
O181	O18	0.028000	0.905400	0.452300
O191	O19	0.114300	0.841900	0.481100
O201	O20	0.827500	0.686360	0.376200
N131	N13	0.903100	0.445040	0.849800
N141	N14	0.973700	0.495970	0.748600
N151	N15	0.138500	0.630060	0.625500
N161	N16	0.240300	0.593550	0.550800
C851	C85	0.833400	0.548400	0.190100
C861	C86	0.797100	0.546400	0.279400
H671	H67	0.771700	0.513700	0.298400
C871	C87	0.797400	0.592500	0.342600
H681	H68	0.772100	0.590800	0.403000
C881	C88	0.835600	0.640600	0.314100
C891	C89	0.873300	0.643300	0.224800
H691	H69	0.898900	0.676000	0.205900
C901	C90	0.872500	0.597100	0.163600
H701	H70	0.898600	0.598500	0.103800
C911	C91	0.832200	0.499400	0.123100
C921	C92	0.886600	0.725500	0.387300
C931	C93	0.863300	0.779700	0.403400
H711	H71	0.810500	0.787900	0.401200
C941	C94	0.914500	0.822000	0.422500
H721	H72	0.897500	0.858800	0.430600
C951	C95	0.992000	0.808600	0.429500
C961	C96	0.018500	0.754500	0.412600
H731	H73	0.071200	0.746200	0.417000
C971	C97	0.963500	0.711300	0.388300
H741	H74	0.979700	0.674900	0.373700
C981	C98	0.051500	0.857300	0.458200
C991	C99	0.942900	0.491900	0.838400
H751	H75	0.948900	0.518900	0.887200
C1001	C100	0.953700	0.448200	0.700100
H761	H76	0.967300	0.438600	0.636100
C1011	C101	0.909900	0.416800	0.763400
H771	H77	0.888300	0.381900	0.749500
C1021	C102	0.019100	0.542600	0.710800
H781	H78	0.046400	0.530600	0.652100
H791	H79	0.057700	0.553200	0.759400
C1031	C103	0.969400	0.594100	0.686100
C1041	C104	0.004900	0.646500	0.681100
C1051	C105	0.959500	0.693300	0.657100
H801	H80	0.982600	0.728600	0.654000
C1061	C106	0.879800	0.687900	0.637700
H811	H81	0.850100	0.719500	0.623300
C1071	C107	0.845900	0.635700	0.639900
H821	H82	0.793500	0.631500	0.624800
C1081	C108	0.891000	0.589200	0.665100
H831	H83	0.867800	0.554000	0.667900
C1091	C109	0.090200	0.654700	0.702400
H841	H84	0.101200	0.694600	0.707400
H851	H85	0.102800	0.637500	0.765100
C1101	C110	0.209200	0.609100	0.635300
H861	H86	0.234500	0.605700	0.695400
C1111	C111	0.184700	0.605300	0.484300
H871	H87	0.188500	0.598500	0.417100
C1121	C112	0.122100	0.628600	0.529400
H881	H88	0.076700	0.641100	0.499400
Co51	Co5	0.648050	0.427430	0.483580
O211	O21	0.642900	0.506440	0.534400
O221	O22	0.690800	0.451790	0.651100
O231	O23	0.472000	0.905400	0.952300
O241	O24	0.385700	0.841900	0.981100
O251	O25	0.672500	0.686360	0.876200
N171	N17	0.596900	0.445040	0.349800
N181	N18	0.526300	0.495970	0.248600
N191	N19	0.361500	0.630060	0.125500
N201	N20	0.259700	0.593550	0.050800
C1131	C113	0.666600	0.548400	0.690100
C1141	C114	0.702900	0.546400	0.779400
H891	H89	0.728300	0.513700	0.798400
C1151	C115	0.702600	0.592500	0.842600
H901	H90	0.727900	0.590800	0.903000
C1161	C116	0.664400	0.640600	0.814100
C1171	C117	0.626700	0.643300	0.724800
H911	H91	0.601100	0.676000	0.705900
C1181	C118	0.627500	0.597100	0.663600
H921	H92	0.601400	0.598500	0.603800
C1191	C119	0.667800	0.499400	0.623100
C1201	C120	0.613400	0.725500	0.887300
C1211	C121	0.636700	0.779700	0.903400
H931	H93	0.689500	0.787900	0.901200
C1221	C122	0.585500	0.822000	0.922500
H941	H94	0.602500	0.858800	0.930600
C1231	C123	0.508000	0.808600	0.929500
C1241	C124	0.481500	0.754500	0.912600
H951	H95	0.428800	0.746200	0.917000
C1251	C125	0.536500	0.711300	0.888300
H961	H96	0.520300	0.674900	0.873700
C1261	C126	0.448500	0.857300	0.958200
C1271	C127	0.557100	0.491900	0.338400
H971	H97	0.551100	0.518900	0.387200
C1281	C128	0.546300	0.448200	0.200100
H981	H98	0.532700	0.438600	0.136100
C1291	C129	0.590100	0.416800	0.263400
H991	H99	0.611700	0.381900	0.249500
C1301	C130	0.480900	0.542600	0.210800
H1001	H100	0.453600	0.530600	0.152100
H1011	H101	0.442300	0.553200	0.259400
C1311	C131	0.530600	0.594100	0.186100
C1321	C132	0.495100	0.646500	0.181100
C1331	C133	0.540500	0.693300	0.157100
H1021	H102	0.517400	0.728600	0.154000
C1341	C134	0.620200	0.687900	0.137700
H1031	H103	0.649900	0.719500	0.123300
C1351	C135	0.654100	0.635700	0.139900
H1041	H104	0.706500	0.631500	0.124800
C1361	C136	0.609000	0.589200	0.165100
H1051	H105	0.632200	0.554000	0.167900
C1371	C137	0.409800	0.654700	0.202400
H1061	H106	0.398800	0.694600	0.207400
H1071	H107	0.397200	0.637500	0.265100
C1381	C138	0.290800	0.609100	0.135300
H1081	H108	0.265500	0.605700	0.195400
C1391	C139	0.315300	0.605300	0.984300
H1091	H109	0.311500	0.598500	0.917100
C1401	C140	0.377900	0.628600	0.029400
H1101	H110	0.423300	0.641100	0.999400
Co61	Co6	0.851950	0.072570	0.483580
O261	O26	0.857100	0.993560	0.534400
O271	O27	0.809200	0.048210	0.651100
O281	O28	0.028000	0.594600	0.952300
O291	O29	0.114300	0.658100	0.981100
O301	O30	0.827500	0.813640	0.876200
N211	N21	0.903100	0.054960	0.349800
N221	N22	0.973700	0.004030	0.248600
N231	N23	0.138500	0.869940	0.125500
N241	N24	0.240300	0.906450	0.050800
C1411	C141	0.833400	0.951600	0.690100
C1421	C142	0.797100	0.953600	0.779400
H1111	H111	0.771700	0.986300	0.798400
C1431	C143	0.797400	0.907500	0.842600
H1121	H112	0.772100	0.909200	0.903000
C1441	C144	0.835600	0.859400	0.814100
C1451	C145	0.873300	0.856700	0.724800
H1131	H113	0.898900	0.824000	0.705900
C1461	C146	0.872500	0.902900	0.663600
H1141	H114	0.898600	0.901500	0.603800
C1471	C147	0.832200	0.000600	0.623100
C1481	C148	0.886600	0.774500	0.887300
C1491	C149	0.863300	0.720300	0.903400
H1151	H115	0.810500	0.712100	0.901200
C1501	C150	0.914500	0.678000	0.922500
H1161	H116	0.897500	0.641200	0.930600
C1511	C151	0.992000	0.691400	0.929500
C1521	C152	0.018500	0.745500	0.912600
H1171	H117	0.071200	0.753800	0.917000
C1531	C153	0.963500	0.788700	0.888300
H1181	H118	0.979700	0.825100	0.873700
C1541	C154	0.051500	0.642700	0.958200
C1551	C155	0.942900	0.008100	0.338400
H1191	H119	0.948900	0.981100	0.387200
C1561	C156	0.953700	0.051800	0.200100
H1201	H120	0.967300	0.061400	0.136100
C1571	C157	0.909900	0.083200	0.263400
H1211	H121	0.888300	0.118100	0.249500
C1581	C158	0.019100	0.957400	0.210800
H1221	H122	0.046400	0.969400	0.152100
H1231	H123	0.057700	0.946800	0.259400
C1591	C159	0.969400	0.905900	0.186100
C1601	C160	0.004900	0.853500	0.181100
C1611	C161	0.959500	0.806700	0.157100
H1241	H124	0.982600	0.771400	0.154000
C1621	C162	0.879800	0.812100	0.137700
H1251	H125	0.850100	0.780500	0.123300
C1631	C163	0.845900	0.864300	0.139900
H1261	H126	0.793500	0.868500	0.124800
C1641	C164	0.891000	0.910800	0.165100
H1271	H127	0.867800	0.946000	0.167900
C1651	C165	0.090200	0.845300	0.202400
H1281	H128	0.101200	0.805400	0.207400
H1291	H129	0.102800	0.862500	0.265100
C1661	C166	0.209200	0.890900	0.135300
H1301	H130	0.234500	0.894300	0.195400
C1671	C167	0.184700	0.894700	0.984300
H1311	H131	0.188500	0.901500	0.917100
C1681	C168	0.122100	0.871400	0.029400
H1321	H132	0.076700	0.858900	0.999400
Co71	Co7	0.351950	0.927430	0.016420
O311	O31	0.357100	0.006440	0.965600
O321	O32	0.309200	0.951790	0.848900
O331	O33	0.528000	0.405400	0.547700
O341	O34	0.614300	0.341900	0.518900
O351	O35	0.327500	0.186360	0.623800
N251	N25	0.403100	0.945040	0.150200
N261	N26	0.473700	0.995970	0.251400
N271	N27	0.638500	0.130060	0.374500
N281	N28	0.740300	0.093550	0.449200
C1691	C169	0.333400	0.048400	0.809900
C1701	C170	0.297100	0.046400	0.720600
H1331	H133	0.271700	0.013700	0.701600
C1711	C171	0.297400	0.092500	0.657400
H1341	H134	0.272100	0.090800	0.597000
C1721	C172	0.335600	0.140600	0.685900
C1731	C173	0.373300	0.143300	0.775200
H1351	H135	0.398900	0.176000	0.794100
C1741	C174	0.372500	0.097100	0.836400
H1361	H136	0.398600	0.098500	0.896200
C1751	C175	0.332200	0.999400	0.876900
C1761	C176	0.386600	0.225500	0.612700
C1771	C177	0.363300	0.279700	0.596600
H1371	H137	0.310500	0.287900	0.598800
C1781	C178	0.414500	0.322000	0.577500
H1381	H138	0.397500	0.358800	0.569400
C1791	C179	0.492000	0.308600	0.570500
C1801	C180	0.518500	0.254500	0.587400
H1391	H139	0.571200	0.246200	0.583000
C1811	C181	0.463500	0.211300	0.611700
H1401	H140	0.479700	0.174900	0.626300
C1821	C182	0.551500	0.357300	0.541800
C1831	C183	0.442900	0.991900	0.161600
H1411	H141	0.448900	0.018900	0.112800
C1841	C184	0.453700	0.948200	0.299900
H1421	H142	0.467300	0.938600	0.363900
C1851	C185	0.409900	0.916800	0.236600
H1431	H143	0.388300	0.881900	0.250500
C1861	C186	0.519100	0.042600	0.289200
H1441	H144	0.546400	0.030600	0.347900
H1451	H145	0.557700	0.053200	0.240600
C1871	C187	0.469400	0.094100	0.313900
C1881	C188	0.504900	0.146500	0.318900
C1891	C189	0.459500	0.193300	0.342900
H1461	H146	0.482600	0.228600	0.346000
C1901	C190	0.379800	0.187900	0.362300
H1471	H147	0.350100	0.219500	0.376700
C1911	C191	0.345900	0.135700	0.360100
H1481	H148	0.293500	0.131500	0.375200
C1921	C192	0.391000	0.089200	0.334900
H1491	H149	0.367800	0.054000	0.332100
C1931	C193	0.590200	0.154700	0.297600
H1501	H150	0.601200	0.194600	0.292600
H1511	H151	0.602800	0.137500	0.234900
C1941	C194	0.709200	0.109100	0.364700
H1521	H152	0.734500	0.105700	0.304600
C1951	C195	0.684700	0.105300	0.515700
H1531	H153	0.688500	0.098500	0.582900
C1961	C196	0.622100	0.128600	0.470600
H1541	H154	0.576700	0.141100	0.500600
Co81	Co8	0.148050	0.572570	0.016420
O361	O36	0.142900	0.493560	0.965600
O371	O37	0.190800	0.548210	0.848900
O381	O38	0.972000	0.094600	0.547700
O391	O39	0.885700	0.158100	0.518900
O401	O40	0.172500	0.313640	0.623800
N291	N29	0.096900	0.554960	0.150200
N301	N30	0.026300	0.504030	0.251400
N311	N31	0.861500	0.369940	0.374500
N321	N32	0.759700	0.406450	0.449200
C1971	C197	0.166600	0.451600	0.809900
C1981	C198	0.202900	0.453600	0.720600
H1551	H155	0.228300	0.486300	0.701600
C1991	C199	0.202600	0.407500	0.657400
H1561	H156	0.227900	0.409200	0.597000
C2001	C200	0.164400	0.359400	0.685900
C2011	C201	0.126700	0.356700	0.775200
H1571	H157	0.101100	0.324000	0.794100
C2021	C202	0.127500	0.402900	0.836400
H1581	H158	0.101400	0.401500	0.896200
C2031	C203	0.167800	0.500600	0.876900
C2041	C204	0.113400	0.274500	0.612700
C2051	C205	0.136700	0.220300	0.596600
H1591	H159	0.189500	0.212100	0.598800
C2061	C206	0.085500	0.178000	0.577500
H1601	H160	0.102500	0.141200	0.569400
C2071	C207	0.008000	0.191400	0.570500
C2081	C208	0.981500	0.245500	0.587400
H1611	H161	0.928800	0.253800	0.583000
C2091	C209	0.036500	0.288700	0.611700
H1621	H162	0.020300	0.325100	0.626300
C2101	C210	0.948500	0.142700	0.541800
C2111	C211	0.057100	0.508100	0.161600
H1631	H163	0.051100	0.481100	0.112800
C2121	C212	0.046300	0.551800	0.299900
H1641	H164	0.032700	0.561400	0.363900
C2131	C213	0.090100	0.583200	0.236600
H1651	H165	0.111700	0.618100	0.250500
C2141	C214	0.980900	0.457400	0.289200
H1661	H166	0.953600	0.469400	0.347900
H1671	H167	0.942300	0.446800	0.240600
C2151	C215	0.030600	0.405900	0.313900
C2161	C216	0.995100	0.353500	0.318900
C2171	C217	0.040500	0.306700	0.342900
H1681	H168	0.017400	0.271400	0.346000
C2181	C218	0.120200	0.312100	0.362300
H1691	H169	0.149900	0.280500	0.376700
C2191	C219	0.154100	0.364300	0.360100
H1701	H170	0.206500	0.368500	0.375200
C2201	C220	0.109000	0.410800	0.334900
H1711	H171	0.132200	0.446000	0.332100
C2211	C221	0.909800	0.345300	0.297600
H1721	H172	0.898800	0.305400	0.292600
H1731	H173	0.897200	0.362500	0.234900
C2221	C222	0.790800	0.390900	0.364700
H1741	H174	0.765500	0.394300	0.304600
C2231	C223	0.815300	0.394700	0.515700
H1751	H175	0.811500	0.401500	0.582900
C2241	C224	0.877900	0.371400	0.470600
H1761	H176	0.923300	0.358900	0.500600
