data_XUFWOM_clean_PM
_symmetry_space_group_name_H-M	'P1'
_cell_length_a	38.027000
_cell_length_b	19.030000
_cell_length_c	19.751500
_cell_angle_alpha	90.000000
_cell_angle_beta	104.123000
_cell_angle_gamma	90.000000
_symmetry_Int_Tables_number 1

loop_
_symmetry_equiv_pos_as_xyz
'x,y,z'

loop_
_atom_site_label
_atom_site_type_symbol
_atom_site_fract_x
_atom_site_fract_y
_atom_site_fract_z
Zn11	Zn1	0.901160	0.388900	0.088910
Zn21	Zn2	0.893030	0.109000	0.203440
Zn31	Zn3	0.811000	0.410660	0.051210
C11	C1	0.930400	0.056700	0.104000
C21	C2	0.928300	0.031900	0.032400
C31	C3	0.956400	0.991500	0.022000
H11	H1	0.975600	0.981100	0.059800
C41	C4	0.956800	0.966000	0.956800
H21	H2	0.976400	0.939500	0.951000
C51	C5	0.928100	0.979700	0.899800
C61	C6	0.898770	0.020500	0.910500
H31	H3	0.879200	0.029500	0.872900
C71	C7	0.898510	0.047000	0.974900
C81	C8	0.927800	0.953100	0.828400
C91	C9	0.867030	0.090000	0.981500
C101	C10	0.872580	0.158800	0.007900
H41	H4	0.896000	0.176600	0.021900
C111	C11	0.843220	0.200400	0.013300
C121	C12	0.808320	0.171800	0.994800
H51	H5	0.788700	0.198600	0.000100
C131	C13	0.802540	0.104900	0.968800
C141	C14	0.832640	0.064000	0.961200
H61	H6	0.828800	0.019200	0.942100
C151	C15	0.848410	0.274100	0.041300
C161	C16	0.765600	0.073300	0.952000
C171	C17	0.936080	0.224300	0.248000
C181	C18	0.943890	0.295500	0.281300
C191	C19	0.979550	0.315600	0.310400
H71	H7	0.998500	0.284500	0.310700
C201	C20	0.986910	0.383000	0.339400
C211	C21	0.957520	0.428400	0.338800
H81	H8	0.962200	0.473800	0.356200
C221	C22	0.922140	0.407200	0.313100
C231	C23	0.914960	0.340800	0.282700
H91	H9	0.891200	0.326800	0.263500
C241	C24	0.024640	0.406000	0.368900
C251	C25	0.890950	0.453900	0.316600
C261	C26	0.890110	0.482900	0.379600
H101	H10	0.909600	0.475600	0.417900
C271	C27	0.861000	0.522900	0.388000
C281	C28	0.831900	0.533800	0.331400
H111	H11	0.812400	0.560900	0.336300
C291	C29	0.832100	0.504100	0.267000
H121	H12	0.812500	0.511100	0.228900
C301	C30	0.861320	0.464000	0.259700
C311	C31	0.860400	0.552100	0.460000
C321	C32	0.860300	0.436300	0.187500
O11	O1	0.899880	0.058900	0.123200
O21	O2	0.959680	0.070800	0.141500
O31	O3	0.897830	0.949800	0.785500
O41	O4	0.956630	0.934700	0.817000
O51	O5	0.820850	0.306600	0.046100
O61	O6	0.880310	0.297800	0.056900
O71	O7	0.740550	0.109900	0.965500
O81	O8	0.760920	0.012900	0.925600
O91	O9	0.903150	0.206200	0.227900
O101	O10	0.961450	0.188900	0.240100
O111	O11	0.031220	0.469200	0.380000
O121	O12	0.049200	0.359100	0.379300
O131	O13	0.830410	0.413600	0.153400
O141	O14	0.887660	0.440600	0.165300
O151	O15	0.830140	0.574700	0.465500
O161	O16	0.889650	0.551100	0.505300
Zn41	Zn4	0.401160	0.888900	0.088910
Zn51	Zn5	0.393030	0.609000	0.203440
Zn61	Zn6	0.311000	0.910660	0.051210
C331	C33	0.430400	0.556700	0.104000
C341	C34	0.428300	0.531900	0.032400
C351	C35	0.456400	0.491500	0.022000
H131	H13	0.475600	0.481100	0.059800
C361	C36	0.456800	0.466000	0.956800
H141	H14	0.476400	0.439500	0.951000
C371	C37	0.428100	0.479700	0.899800
C381	C38	0.398770	0.520500	0.910500
H151	H15	0.379200	0.529500	0.872900
C391	C39	0.398510	0.547000	0.974900
C401	C40	0.427800	0.453100	0.828400
C411	C41	0.367030	0.590000	0.981500
C421	C42	0.372580	0.658800	0.007900
H161	H16	0.396000	0.676600	0.021900
C431	C43	0.343220	0.700400	0.013300
C441	C44	0.308320	0.671800	0.994800
H171	H17	0.288700	0.698600	0.000100
C451	C45	0.302540	0.604900	0.968800
C461	C46	0.332640	0.564000	0.961200
H181	H18	0.328800	0.519200	0.942100
C471	C47	0.348410	0.774100	0.041300
C481	C48	0.265600	0.573300	0.952000
C491	C49	0.436080	0.724300	0.248000
C501	C50	0.443890	0.795500	0.281300
C511	C51	0.479550	0.815600	0.310400
H191	H19	0.498500	0.784500	0.310700
C521	C52	0.486910	0.883000	0.339400
C531	C53	0.457520	0.928400	0.338800
H201	H20	0.462200	0.973800	0.356200
C541	C54	0.422140	0.907200	0.313100
C551	C55	0.414960	0.840800	0.282700
H211	H21	0.391200	0.826800	0.263500
C561	C56	0.524640	0.906000	0.368900
C571	C57	0.390950	0.953900	0.316600
C581	C58	0.390110	0.982900	0.379600
H221	H22	0.409600	0.975600	0.417900
C591	C59	0.361000	0.022900	0.388000
C601	C60	0.331900	0.033800	0.331400
H231	H23	0.312400	0.060900	0.336300
C611	C61	0.332100	0.004100	0.267000
H241	H24	0.312500	0.011100	0.228900
C621	C62	0.361320	0.964000	0.259700
C631	C63	0.360400	0.052100	0.460000
C641	C64	0.360300	0.936300	0.187500
O171	O17	0.399880	0.558900	0.123200
O181	O18	0.459680	0.570800	0.141500
O191	O19	0.397830	0.449800	0.785500
O201	O20	0.456630	0.434700	0.817000
O211	O21	0.320850	0.806600	0.046100
O221	O22	0.380310	0.797800	0.056900
O231	O23	0.240550	0.609900	0.965500
O241	O24	0.260920	0.512900	0.925600
O251	O25	0.403150	0.706200	0.227900
O261	O26	0.461450	0.688900	0.240100
O271	O27	0.531220	0.969200	0.380000
O281	O28	0.549200	0.859100	0.379300
O291	O29	0.330410	0.913600	0.153400
O301	O30	0.387660	0.940600	0.165300
O311	O31	0.330140	0.074700	0.465500
O321	O32	0.389650	0.051100	0.505300
Zn71	Zn7	0.098840	0.388900	0.411090
Zn81	Zn8	0.106970	0.109000	0.296560
Zn91	Zn9	0.189000	0.410660	0.448790
C651	C65	0.069600	0.056700	0.396000
C661	C66	0.071700	0.031900	0.467600
C671	C67	0.043600	0.991500	0.478000
H251	H25	0.024400	0.981100	0.440200
C681	C68	0.043200	0.966000	0.543200
H261	H26	0.023600	0.939500	0.549000
C691	C69	0.071900	0.979700	0.600200
C701	C70	0.101230	0.020500	0.589500
H271	H27	0.120800	0.029500	0.627100
C711	C71	0.101490	0.047000	0.525100
C721	C72	0.072200	0.953100	0.671600
C731	C73	0.132970	0.090000	0.518500
C741	C74	0.127420	0.158800	0.492100
H281	H28	0.104000	0.176600	0.478100
C751	C75	0.156780	0.200400	0.486700
C761	C76	0.191680	0.171800	0.505200
H291	H29	0.211300	0.198600	0.499900
C771	C77	0.197460	0.104900	0.531200
C781	C78	0.167360	0.064000	0.538800
H301	H30	0.171200	0.019200	0.557900
C791	C79	0.151590	0.274100	0.458700
C801	C80	0.234400	0.073300	0.548000
C811	C81	0.063920	0.224300	0.252000
C821	C82	0.056110	0.295500	0.218700
C831	C83	0.020450	0.315600	0.189600
H311	H31	0.001500	0.284500	0.189300
C841	C84	0.013090	0.383000	0.160600
C851	C85	0.042480	0.428400	0.161200
H321	H32	0.037800	0.473800	0.143800
C861	C86	0.077860	0.407200	0.186900
C871	C87	0.085040	0.340800	0.217300
H331	H33	0.108800	0.326800	0.236500
C881	C88	0.975360	0.406000	0.131100
C891	C89	0.109050	0.453900	0.183400
C901	C90	0.109890	0.482900	0.120400
H341	H34	0.090400	0.475600	0.082100
C911	C91	0.139000	0.522900	0.112000
C921	C92	0.168100	0.533800	0.168600
H351	H35	0.187600	0.560900	0.163700
C931	C93	0.167900	0.504100	0.233000
H361	H36	0.187500	0.511100	0.271100
C941	C94	0.138680	0.464000	0.240300
C951	C95	0.139600	0.552100	0.040000
C961	C96	0.139700	0.436300	0.312500
O331	O33	0.100120	0.058900	0.376800
O341	O34	0.040320	0.070800	0.358500
O351	O35	0.102170	0.949800	0.714500
O361	O36	0.043370	0.934700	0.683000
O371	O37	0.179150	0.306600	0.453900
O381	O38	0.119690	0.297800	0.443100
O391	O39	0.259450	0.109900	0.534500
O401	O40	0.239080	0.012900	0.574400
O411	O41	0.096850	0.206200	0.272100
O421	O42	0.038550	0.188900	0.259900
O431	O43	0.968780	0.469200	0.120000
O441	O44	0.950800	0.359100	0.120700
O451	O45	0.169590	0.413600	0.346600
O461	O46	0.112340	0.440600	0.334700
O471	O47	0.169860	0.574700	0.034500
O481	O48	0.110350	0.551100	0.994700
Zn101	Zn10	0.598840	0.888900	0.411090
Zn111	Zn11	0.606970	0.609000	0.296560
Zn121	Zn12	0.689000	0.910660	0.448790
C971	C97	0.569600	0.556700	0.396000
C981	C98	0.571700	0.531900	0.467600
C991	C99	0.543600	0.491500	0.478000
H371	H37	0.524400	0.481100	0.440200
C1001	C100	0.543200	0.466000	0.543200
H381	H38	0.523600	0.439500	0.549000
C1011	C101	0.571900	0.479700	0.600200
C1021	C102	0.601230	0.520500	0.589500
H391	H39	0.620800	0.529500	0.627100
C1031	C103	0.601490	0.547000	0.525100
C1041	C104	0.572200	0.453100	0.671600
C1051	C105	0.632970	0.590000	0.518500
C1061	C106	0.627420	0.658800	0.492100
H401	H40	0.604000	0.676600	0.478100
C1071	C107	0.656780	0.700400	0.486700
C1081	C108	0.691680	0.671800	0.505200
H411	H41	0.711300	0.698600	0.499900
C1091	C109	0.697460	0.604900	0.531200
C1101	C110	0.667360	0.564000	0.538800
H421	H42	0.671200	0.519200	0.557900
C1111	C111	0.651590	0.774100	0.458700
C1121	C112	0.734400	0.573300	0.548000
C1131	C113	0.563920	0.724300	0.252000
C1141	C114	0.556110	0.795500	0.218700
C1151	C115	0.520450	0.815600	0.189600
H431	H43	0.501500	0.784500	0.189300
C1161	C116	0.513090	0.883000	0.160600
C1171	C117	0.542480	0.928400	0.161200
H441	H44	0.537800	0.973800	0.143800
C1181	C118	0.577860	0.907200	0.186900
C1191	C119	0.585040	0.840800	0.217300
H451	H45	0.608800	0.826800	0.236500
C1201	C120	0.475360	0.906000	0.131100
C1211	C121	0.609050	0.953900	0.183400
C1221	C122	0.609890	0.982900	0.120400
H461	H46	0.590400	0.975600	0.082100
C1231	C123	0.639000	0.022900	0.112000
C1241	C124	0.668100	0.033800	0.168600
H471	H47	0.687600	0.060900	0.163700
C1251	C125	0.667900	0.004100	0.233000
H481	H48	0.687500	0.011100	0.271100
C1261	C126	0.638680	0.964000	0.240300
C1271	C127	0.639600	0.052100	0.040000
C1281	C128	0.639700	0.936300	0.312500
O491	O49	0.600120	0.558900	0.376800
O501	O50	0.540320	0.570800	0.358500
O511	O51	0.602170	0.449800	0.714500
O521	O52	0.543370	0.434700	0.683000
O531	O53	0.679150	0.806600	0.453900
O541	O54	0.619690	0.797800	0.443100
O551	O55	0.759450	0.609900	0.534500
O561	O56	0.739080	0.512900	0.574400
O571	O57	0.596850	0.706200	0.272100
O581	O58	0.538550	0.688900	0.259900
O591	O59	0.468780	0.969200	0.120000
O601	O60	0.450800	0.859100	0.120700
O611	O61	0.669590	0.913600	0.346600
O621	O62	0.612340	0.940600	0.334700
O631	O63	0.669860	0.074700	0.034500
O641	O64	0.610350	0.051100	0.994700
Zn131	Zn13	0.098840	0.611100	0.911090
Zn141	Zn14	0.106970	0.891000	0.796560
Zn151	Zn15	0.189000	0.589340	0.948790
C1291	C129	0.069600	0.943300	0.896000
C1301	C130	0.071700	0.968100	0.967600
C1311	C131	0.043600	0.008500	0.978000
H491	H49	0.024400	0.018900	0.940200
C1321	C132	0.043200	0.034000	0.043200
H501	H50	0.023600	0.060500	0.049000
C1331	C133	0.071900	0.020300	0.100200
C1341	C134	0.101230	0.979500	0.089500
H511	H51	0.120800	0.970500	0.127100
C1351	C135	0.101490	0.953000	0.025100
C1361	C136	0.072200	0.046900	0.171600
C1371	C137	0.132970	0.910000	0.018500
C1381	C138	0.127420	0.841200	0.992100
H521	H52	0.104000	0.823400	0.978100
C1391	C139	0.156780	0.799600	0.986700
C1401	C140	0.191680	0.828200	0.005200
H531	H53	0.211300	0.801400	0.999900
C1411	C141	0.197460	0.895100	0.031200
C1421	C142	0.167360	0.936000	0.038800
H541	H54	0.171200	0.980800	0.057900
C1431	C143	0.151590	0.725900	0.958700
C1441	C144	0.234400	0.926700	0.048000
C1451	C145	0.063920	0.775700	0.752000
C1461	C146	0.056110	0.704500	0.718700
C1471	C147	0.020450	0.684400	0.689600
H551	H55	0.001500	0.715500	0.689300
C1481	C148	0.013090	0.617000	0.660600
C1491	C149	0.042480	0.571600	0.661200
H561	H56	0.037800	0.526200	0.643800
C1501	C150	0.077860	0.592800	0.686900
C1511	C151	0.085040	0.659200	0.717300
H571	H57	0.108800	0.673200	0.736500
C1521	C152	0.975360	0.594000	0.631100
C1531	C153	0.109050	0.546100	0.683400
C1541	C154	0.109890	0.517100	0.620400
H581	H58	0.090400	0.524400	0.582100
C1551	C155	0.139000	0.477100	0.612000
C1561	C156	0.168100	0.466200	0.668600
H591	H59	0.187600	0.439100	0.663700
C1571	C157	0.167900	0.495900	0.733000
H601	H60	0.187500	0.488900	0.771100
C1581	C158	0.138680	0.536000	0.740300
C1591	C159	0.139600	0.447900	0.540000
C1601	C160	0.139700	0.563700	0.812500
O651	O65	0.100120	0.941100	0.876800
O661	O66	0.040320	0.929200	0.858500
O671	O67	0.102170	0.050200	0.214500
O681	O68	0.043370	0.065300	0.183000
O691	O69	0.179150	0.693400	0.953900
O701	O70	0.119690	0.702200	0.943100
O711	O71	0.259450	0.890100	0.034500
O721	O72	0.239080	0.987100	0.074400
O731	O73	0.096850	0.793800	0.772100
O741	O74	0.038550	0.811100	0.759900
O751	O75	0.968780	0.530800	0.620000
O761	O76	0.950800	0.640900	0.620700
O771	O77	0.169590	0.586400	0.846600
O781	O78	0.112340	0.559400	0.834700
O791	O79	0.169860	0.425300	0.534500
O801	O80	0.110350	0.448900	0.494700
Zn161	Zn16	0.598840	0.111100	0.911090
Zn171	Zn17	0.606970	0.391000	0.796560
Zn181	Zn18	0.689000	0.089340	0.948790
C1611	C161	0.569600	0.443300	0.896000
C1621	C162	0.571700	0.468100	0.967600
C1631	C163	0.543600	0.508500	0.978000
H611	H61	0.524400	0.518900	0.940200
C1641	C164	0.543200	0.534000	0.043200
H621	H62	0.523600	0.560500	0.049000
C1651	C165	0.571900	0.520300	0.100200
C1661	C166	0.601230	0.479500	0.089500
H631	H63	0.620800	0.470500	0.127100
C1671	C167	0.601490	0.453000	0.025100
C1681	C168	0.572200	0.546900	0.171600
C1691	C169	0.632970	0.410000	0.018500
C1701	C170	0.627420	0.341200	0.992100
H641	H64	0.604000	0.323400	0.978100
C1711	C171	0.656780	0.299600	0.986700
C1721	C172	0.691680	0.328200	0.005200
H651	H65	0.711300	0.301400	0.999900
C1731	C173	0.697460	0.395100	0.031200
C1741	C174	0.667360	0.436000	0.038800
H661	H66	0.671200	0.480800	0.057900
C1751	C175	0.651590	0.225900	0.958700
C1761	C176	0.734400	0.426700	0.048000
C1771	C177	0.563920	0.275700	0.752000
C1781	C178	0.556110	0.204500	0.718700
C1791	C179	0.520450	0.184400	0.689600
H671	H67	0.501500	0.215500	0.689300
C1801	C180	0.513090	0.117000	0.660600
C1811	C181	0.542480	0.071600	0.661200
H681	H68	0.537800	0.026200	0.643800
C1821	C182	0.577860	0.092800	0.686900
C1831	C183	0.585040	0.159200	0.717300
H691	H69	0.608800	0.173200	0.736500
C1841	C184	0.475360	0.094000	0.631100
C1851	C185	0.609050	0.046100	0.683400
C1861	C186	0.609890	0.017100	0.620400
H701	H70	0.590400	0.024400	0.582100
C1871	C187	0.639000	0.977100	0.612000
C1881	C188	0.668100	0.966200	0.668600
H711	H71	0.687600	0.939100	0.663700
C1891	C189	0.667900	0.995900	0.733000
H721	H72	0.687500	0.988900	0.771100
C1901	C190	0.638680	0.036000	0.740300
C1911	C191	0.639600	0.947900	0.540000
C1921	C192	0.639700	0.063700	0.812500
O811	O81	0.600120	0.441100	0.876800
O821	O82	0.540320	0.429200	0.858500
O831	O83	0.602170	0.550200	0.214500
O841	O84	0.543370	0.565300	0.183000
O851	O85	0.679150	0.193400	0.953900
O861	O86	0.619690	0.202200	0.943100
O871	O87	0.759450	0.390100	0.034500
O881	O88	0.739080	0.487100	0.074400
O891	O89	0.596850	0.293800	0.772100
O901	O90	0.538550	0.311100	0.759900
O911	O91	0.468780	0.030800	0.620000
O921	O92	0.450800	0.140900	0.620700
O931	O93	0.669590	0.086400	0.846600
O941	O94	0.612340	0.059400	0.834700
O951	O95	0.669860	0.925300	0.534500
O961	O96	0.610350	0.948900	0.494700
Zn191	Zn19	0.901160	0.611100	0.588910
Zn201	Zn20	0.893030	0.891000	0.703440
Zn211	Zn21	0.811000	0.589340	0.551210
C1931	C193	0.930400	0.943300	0.604000
C1941	C194	0.928300	0.968100	0.532400
C1951	C195	0.956400	0.008500	0.522000
H731	H73	0.975600	0.018900	0.559800
C1961	C196	0.956800	0.034000	0.456800
H741	H74	0.976400	0.060500	0.451000
C1971	C197	0.928100	0.020300	0.399800
C1981	C198	0.898770	0.979500	0.410500
H751	H75	0.879200	0.970500	0.372900
C1991	C199	0.898510	0.953000	0.474900
C2001	C200	0.927800	0.046900	0.328400
C2011	C201	0.867030	0.910000	0.481500
C2021	C202	0.872580	0.841200	0.507900
H761	H76	0.896000	0.823400	0.521900
C2031	C203	0.843220	0.799600	0.513300
C2041	C204	0.808320	0.828200	0.494800
H771	H77	0.788700	0.801400	0.500100
C2051	C205	0.802540	0.895100	0.468800
C2061	C206	0.832640	0.936000	0.461200
H781	H78	0.828800	0.980800	0.442100
C2071	C207	0.848410	0.725900	0.541300
C2081	C208	0.765600	0.926700	0.452000
C2091	C209	0.936080	0.775700	0.748000
C2101	C210	0.943890	0.704500	0.781300
C2111	C211	0.979550	0.684400	0.810400
H791	H79	0.998500	0.715500	0.810700
C2121	C212	0.986910	0.617000	0.839400
C2131	C213	0.957520	0.571600	0.838800
H801	H80	0.962200	0.526200	0.856200
C2141	C214	0.922140	0.592800	0.813100
C2151	C215	0.914960	0.659200	0.782700
H811	H81	0.891200	0.673200	0.763500
C2161	C216	0.024640	0.594000	0.868900
C2171	C217	0.890950	0.546100	0.816600
C2181	C218	0.890110	0.517100	0.879600
H821	H82	0.909600	0.524400	0.917900
C2191	C219	0.861000	0.477100	0.888000
C2201	C220	0.831900	0.466200	0.831400
H831	H83	0.812400	0.439100	0.836300
C2211	C221	0.832100	0.495900	0.767000
H841	H84	0.812500	0.488900	0.728900
C2221	C222	0.861320	0.536000	0.759700
C2231	C223	0.860400	0.447900	0.960000
C2241	C224	0.860300	0.563700	0.687500
O971	O97	0.899880	0.941100	0.623200
O981	O98	0.959680	0.929200	0.641500
O991	O99	0.897830	0.050200	0.285500
O1001	O100	0.956630	0.065300	0.317000
O1011	O101	0.820850	0.693400	0.546100
O1021	O102	0.880310	0.702200	0.556900
O1031	O103	0.740550	0.890100	0.465500
O1041	O104	0.760920	0.987100	0.425600
O1051	O105	0.903150	0.793800	0.727900
O1061	O106	0.961450	0.811100	0.740100
O1071	O107	0.031220	0.530800	0.880000
O1081	O108	0.049200	0.640900	0.879300
O1091	O109	0.830410	0.586400	0.653400
O1101	O110	0.887660	0.559400	0.665300
O1111	O111	0.830140	0.425300	0.965500
O1121	O112	0.889650	0.448900	0.005300
Zn221	Zn22	0.401160	0.111100	0.588910
Zn231	Zn23	0.393030	0.391000	0.703440
Zn241	Zn24	0.311000	0.089340	0.551210
C2251	C225	0.430400	0.443300	0.604000
C2261	C226	0.428300	0.468100	0.532400
C2271	C227	0.456400	0.508500	0.522000
H851	H85	0.475600	0.518900	0.559800
C2281	C228	0.456800	0.534000	0.456800
H861	H86	0.476400	0.560500	0.451000
C2291	C229	0.428100	0.520300	0.399800
C2301	C230	0.398770	0.479500	0.410500
H871	H87	0.379200	0.470500	0.372900
C2311	C231	0.398510	0.453000	0.474900
C2321	C232	0.427800	0.546900	0.328400
C2331	C233	0.367030	0.410000	0.481500
C2341	C234	0.372580	0.341200	0.507900
H881	H88	0.396000	0.323400	0.521900
C2351	C235	0.343220	0.299600	0.513300
C2361	C236	0.308320	0.328200	0.494800
H891	H89	0.288700	0.301400	0.500100
C2371	C237	0.302540	0.395100	0.468800
C2381	C238	0.332640	0.436000	0.461200
H901	H90	0.328800	0.480800	0.442100
C2391	C239	0.348410	0.225900	0.541300
C2401	C240	0.265600	0.426700	0.452000
C2411	C241	0.436080	0.275700	0.748000
C2421	C242	0.443890	0.204500	0.781300
C2431	C243	0.479550	0.184400	0.810400
H911	H91	0.498500	0.215500	0.810700
C2441	C244	0.486910	0.117000	0.839400
C2451	C245	0.457520	0.071600	0.838800
H921	H92	0.462200	0.026200	0.856200
C2461	C246	0.422140	0.092800	0.813100
C2471	C247	0.414960	0.159200	0.782700
H931	H93	0.391200	0.173200	0.763500
C2481	C248	0.524640	0.094000	0.868900
C2491	C249	0.390950	0.046100	0.816600
C2501	C250	0.390110	0.017100	0.879600
H941	H94	0.409600	0.024400	0.917900
C2511	C251	0.361000	0.977100	0.888000
C2521	C252	0.331900	0.966200	0.831400
H951	H95	0.312400	0.939100	0.836300
C2531	C253	0.332100	0.995900	0.767000
H961	H96	0.312500	0.988900	0.728900
C2541	C254	0.361320	0.036000	0.759700
C2551	C255	0.360400	0.947900	0.960000
C2561	C256	0.360300	0.063700	0.687500
O1131	O113	0.399880	0.441100	0.623200
O1141	O114	0.459680	0.429200	0.641500
O1151	O115	0.397830	0.550200	0.285500
O1161	O116	0.456630	0.565300	0.317000
O1171	O117	0.320850	0.193400	0.546100
O1181	O118	0.380310	0.202200	0.556900
O1191	O119	0.240550	0.390100	0.465500
O1201	O120	0.260920	0.487100	0.425600
O1211	O121	0.403150	0.293800	0.727900
O1221	O122	0.461450	0.311100	0.740100
O1231	O123	0.531220	0.030800	0.880000
O1241	O124	0.549200	0.140900	0.879300
O1251	O125	0.330410	0.086400	0.653400
O1261	O126	0.387660	0.059400	0.665300
O1271	O127	0.330140	0.925300	0.965500
O1281	O128	0.389650	0.948900	0.005300
