data_XUFYAA_clean_PM
_symmetry_space_group_name_H-M	'P1'
_cell_length_a	27.348900
_cell_length_b	27.348900
_cell_length_c	27.348900
_cell_angle_alpha	90.000000
_cell_angle_beta	90.000000
_cell_angle_gamma	90.000000
_symmetry_Int_Tables_number 1

loop_
_symmetry_equiv_pos_as_xyz
'x,y,z'

loop_
_atom_site_label
_atom_site_type_symbol
_atom_site_fract_x
_atom_site_fract_y
_atom_site_fract_z
C11	C1	0.139430	0.074630	0.422970
C21	C2	0.155280	0.101730	0.378520
C31	C3	0.120450	0.127870	0.351660
H11	H1	0.088300	0.129900	0.362400
C41	C4	0.134460	0.150150	0.309720
H21	H2	0.110500	0.161600	0.288500
C51	C5	0.183610	0.156600	0.297170
C61	C6	0.216800	0.133860	0.325550
H31	H3	0.249700	0.136700	0.317500
C71	C7	0.204210	0.106520	0.366180
H41	H4	0.228300	0.091500	0.385000
C81	C8	0.196810	0.185280	0.252880
C91	C9	0.170650	0.226180	0.238200
H51	H5	0.143300	0.236000	0.255800
O11	O1	0.171760	0.052480	0.446240
O21	O2	0.096590	0.074310	0.437350
C101	C10	0.860570	0.925370	0.422970
C111	C11	0.844720	0.898270	0.378520
C121	C12	0.879550	0.872130	0.351660
H61	H6	0.911700	0.870100	0.362400
C131	C13	0.865540	0.849850	0.309720
H71	H7	0.889500	0.838400	0.288500
C141	C14	0.816390	0.843400	0.297170
C151	C15	0.783200	0.866140	0.325550
H81	H8	0.750300	0.863300	0.317500
C161	C16	0.795790	0.893480	0.366180
H91	H9	0.771700	0.908500	0.385000
C171	C17	0.803190	0.814720	0.252880
C181	C18	0.829350	0.773820	0.238200
H101	H10	0.856700	0.764000	0.255800
O31	O3	0.828240	0.947520	0.446240
O41	O4	0.903410	0.925690	0.437350
C191	C19	0.860570	0.074630	0.577030
C201	C20	0.844720	0.101730	0.621480
C211	C21	0.879550	0.127870	0.648340
H111	H11	0.911700	0.129900	0.637600
C221	C22	0.865540	0.150150	0.690280
H121	H12	0.889500	0.161600	0.711500
C231	C23	0.816390	0.156600	0.702830
C241	C24	0.783200	0.133860	0.674450
H131	H13	0.750300	0.136700	0.682500
C251	C25	0.795790	0.106520	0.633820
H141	H14	0.771700	0.091500	0.615000
C261	C26	0.803190	0.185280	0.747120
C271	C27	0.829350	0.226180	0.761800
H151	H15	0.856700	0.236000	0.744200
O51	O5	0.828240	0.052480	0.553760
O61	O6	0.903410	0.074310	0.562650
C281	C28	0.139430	0.925370	0.577030
C291	C29	0.155280	0.898270	0.621480
C301	C30	0.120450	0.872130	0.648340
H161	H16	0.088300	0.870100	0.637600
C311	C31	0.134460	0.849850	0.690280
H171	H17	0.110500	0.838400	0.711500
C321	C32	0.183610	0.843400	0.702830
C331	C33	0.216800	0.866140	0.674450
H181	H18	0.249700	0.863300	0.682500
C341	C34	0.204210	0.893480	0.633820
H191	H19	0.228300	0.908500	0.615000
C351	C35	0.196810	0.814720	0.747120
C361	C36	0.170650	0.773820	0.761800
H201	H20	0.143300	0.764000	0.744200
O71	O7	0.171760	0.947520	0.553760
O81	O8	0.096590	0.925690	0.562650
C371	C37	0.422970	0.139430	0.074630
C381	C38	0.378520	0.155280	0.101730
C391	C39	0.351660	0.120450	0.127870
H211	H21	0.362400	0.088300	0.129900
C401	C40	0.309720	0.134460	0.150150
H221	H22	0.288500	0.110500	0.161600
C411	C41	0.297170	0.183610	0.156600
C421	C42	0.325550	0.216800	0.133860
H231	H23	0.317500	0.249700	0.136700
C431	C43	0.366180	0.204210	0.106520
H241	H24	0.385000	0.228300	0.091500
C441	C44	0.252880	0.196810	0.185280
C451	C45	0.238200	0.170650	0.226180
H251	H25	0.255800	0.143300	0.236000
O91	O9	0.446240	0.171760	0.052480
O101	O10	0.437350	0.096590	0.074310
C461	C46	0.422970	0.860570	0.925370
C471	C47	0.378520	0.844720	0.898270
C481	C48	0.351660	0.879550	0.872130
H261	H26	0.362400	0.911700	0.870100
C491	C49	0.309720	0.865540	0.849850
H271	H27	0.288500	0.889500	0.838400
C501	C50	0.297170	0.816390	0.843400
C511	C51	0.325550	0.783200	0.866140
H281	H28	0.317500	0.750300	0.863300
C521	C52	0.366180	0.795790	0.893480
H291	H29	0.385000	0.771700	0.908500
C531	C53	0.252880	0.803190	0.814720
C541	C54	0.238200	0.829350	0.773820
H301	H30	0.255800	0.856700	0.764000
O111	O11	0.446240	0.828240	0.947520
O121	O12	0.437350	0.903410	0.925690
C551	C55	0.577030	0.860570	0.074630
C561	C56	0.621480	0.844720	0.101730
C571	C57	0.648340	0.879550	0.127870
H311	H31	0.637600	0.911700	0.129900
C581	C58	0.690280	0.865540	0.150150
H321	H32	0.711500	0.889500	0.161600
C591	C59	0.702830	0.816390	0.156600
C601	C60	0.674450	0.783200	0.133860
H331	H33	0.682500	0.750300	0.136700
C611	C61	0.633820	0.795790	0.106520
H341	H34	0.615000	0.771700	0.091500
C621	C62	0.747120	0.803190	0.185280
C631	C63	0.761800	0.829350	0.226180
H351	H35	0.744200	0.856700	0.236000
O131	O13	0.553760	0.828240	0.052480
O141	O14	0.562650	0.903410	0.074310
C641	C64	0.577030	0.139430	0.925370
C651	C65	0.621480	0.155280	0.898270
C661	C66	0.648340	0.120450	0.872130
H361	H36	0.637600	0.088300	0.870100
C671	C67	0.690280	0.134460	0.849850
H371	H37	0.711500	0.110500	0.838400
C681	C68	0.702830	0.183610	0.843400
C691	C69	0.674450	0.216800	0.866140
H381	H38	0.682500	0.249700	0.863300
C701	C70	0.633820	0.204210	0.893480
H391	H39	0.615000	0.228300	0.908500
C711	C71	0.747120	0.196810	0.814720
C721	C72	0.761800	0.170650	0.773820
H401	H40	0.744200	0.143300	0.764000
O151	O15	0.553760	0.171760	0.947520
O161	O16	0.562650	0.096590	0.925690
C731	C73	0.074630	0.422970	0.139430
C741	C74	0.101730	0.378520	0.155280
C751	C75	0.127870	0.351660	0.120450
H411	H41	0.129900	0.362400	0.088300
C761	C76	0.150150	0.309720	0.134460
H421	H42	0.161600	0.288500	0.110500
C771	C77	0.156600	0.297170	0.183610
C781	C78	0.133860	0.325550	0.216800
H431	H43	0.136700	0.317500	0.249700
C791	C79	0.106520	0.366180	0.204210
H441	H44	0.091500	0.385000	0.228300
C801	C80	0.185280	0.252880	0.196810
C811	C81	0.226180	0.238200	0.170650
H451	H45	0.236000	0.255800	0.143300
O171	O17	0.052480	0.446240	0.171760
O181	O18	0.074310	0.437350	0.096590
C821	C82	0.925370	0.422970	0.860570
C831	C83	0.898270	0.378520	0.844720
C841	C84	0.872130	0.351660	0.879550
H461	H46	0.870100	0.362400	0.911700
C851	C85	0.849850	0.309720	0.865540
H471	H47	0.838400	0.288500	0.889500
C861	C86	0.843400	0.297170	0.816390
C871	C87	0.866140	0.325550	0.783200
H481	H48	0.863300	0.317500	0.750300
C881	C88	0.893480	0.366180	0.795790
H491	H49	0.908500	0.385000	0.771700
C891	C89	0.814720	0.252880	0.803190
C901	C90	0.773820	0.238200	0.829350
H501	H50	0.764000	0.255800	0.856700
O191	O19	0.947520	0.446240	0.828240
O201	O20	0.925690	0.437350	0.903410
C911	C91	0.074630	0.577030	0.860570
C921	C92	0.101730	0.621480	0.844720
C931	C93	0.127870	0.648340	0.879550
H511	H51	0.129900	0.637600	0.911700
C941	C94	0.150150	0.690280	0.865540
H521	H52	0.161600	0.711500	0.889500
C951	C95	0.156600	0.702830	0.816390
C961	C96	0.133860	0.674450	0.783200
H531	H53	0.136700	0.682500	0.750300
C971	C97	0.106520	0.633820	0.795790
H541	H54	0.091500	0.615000	0.771700
C981	C98	0.185280	0.747120	0.803190
C991	C99	0.226180	0.761800	0.829350
H551	H55	0.236000	0.744200	0.856700
O211	O21	0.052480	0.553760	0.828240
O221	O22	0.074310	0.562650	0.903410
C1001	C100	0.925370	0.577030	0.139430
C1011	C101	0.898270	0.621480	0.155280
C1021	C102	0.872130	0.648340	0.120450
H561	H56	0.870100	0.637600	0.088300
C1031	C103	0.849850	0.690280	0.134460
H571	H57	0.838400	0.711500	0.110500
C1041	C104	0.843400	0.702830	0.183610
C1051	C105	0.866140	0.674450	0.216800
H581	H58	0.863300	0.682500	0.249700
C1061	C106	0.893480	0.633820	0.204210
H591	H59	0.908500	0.615000	0.228300
C1071	C107	0.814720	0.747120	0.196810
C1081	C108	0.773820	0.761800	0.170650
H601	H60	0.764000	0.744200	0.143300
O231	O23	0.947520	0.553760	0.171760
O241	O24	0.925690	0.562650	0.096590
C1091	C109	0.860570	0.925370	0.577030
C1101	C110	0.844720	0.898270	0.621480
C1111	C111	0.879550	0.872130	0.648340
H611	H61	0.911700	0.870100	0.637600
C1121	C112	0.865540	0.849850	0.690280
H621	H62	0.889500	0.838400	0.711500
C1131	C113	0.816390	0.843400	0.702830
C1141	C114	0.783200	0.866140	0.674450
H631	H63	0.750300	0.863300	0.682500
C1151	C115	0.795790	0.893480	0.633820
H641	H64	0.771700	0.908500	0.615000
C1161	C116	0.803190	0.814720	0.747120
C1171	C117	0.829350	0.773820	0.761800
H651	H65	0.856700	0.764000	0.744200
O251	O25	0.828240	0.947520	0.553760
O261	O26	0.903410	0.925690	0.562650
C1181	C118	0.139430	0.074630	0.577030
C1191	C119	0.155280	0.101730	0.621480
C1201	C120	0.120450	0.127870	0.648340
H661	H66	0.088300	0.129900	0.637600
C1211	C121	0.134460	0.150150	0.690280
H671	H67	0.110500	0.161600	0.711500
C1221	C122	0.183610	0.156600	0.702830
C1231	C123	0.216800	0.133860	0.674450
H681	H68	0.249700	0.136700	0.682500
C1241	C124	0.204210	0.106520	0.633820
H691	H69	0.228300	0.091500	0.615000
C1251	C125	0.196810	0.185280	0.747120
C1261	C126	0.170650	0.226180	0.761800
H701	H70	0.143300	0.236000	0.744200
O271	O27	0.171760	0.052480	0.553760
O281	O28	0.096590	0.074310	0.562650
C1271	C127	0.139430	0.925370	0.422970
C1281	C128	0.155280	0.898270	0.378520
C1291	C129	0.120450	0.872130	0.351660
H711	H71	0.088300	0.870100	0.362400
C1301	C130	0.134460	0.849850	0.309720
H721	H72	0.110500	0.838400	0.288500
C1311	C131	0.183610	0.843400	0.297170
C1321	C132	0.216800	0.866140	0.325550
H731	H73	0.249700	0.863300	0.317500
C1331	C133	0.204210	0.893480	0.366180
H741	H74	0.228300	0.908500	0.385000
C1341	C134	0.196810	0.814720	0.252880
C1351	C135	0.170650	0.773820	0.238200
H751	H75	0.143300	0.764000	0.255800
O291	O29	0.171760	0.947520	0.446240
O301	O30	0.096590	0.925690	0.437350
C1361	C136	0.860570	0.074630	0.422970
C1371	C137	0.844720	0.101730	0.378520
C1381	C138	0.879550	0.127870	0.351660
H761	H76	0.911700	0.129900	0.362400
C1391	C139	0.865540	0.150150	0.309720
H771	H77	0.889500	0.161600	0.288500
C1401	C140	0.816390	0.156600	0.297170
C1411	C141	0.783200	0.133860	0.325550
H781	H78	0.750300	0.136700	0.317500
C1421	C142	0.795790	0.106520	0.366180
H791	H79	0.771700	0.091500	0.385000
C1431	C143	0.803190	0.185280	0.252880
C1441	C144	0.829350	0.226180	0.238200
H801	H80	0.856700	0.236000	0.255800
O311	O31	0.828240	0.052480	0.446240
O321	O32	0.903410	0.074310	0.437350
C1451	C145	0.577030	0.860570	0.925370
C1461	C146	0.621480	0.844720	0.898270
C1471	C147	0.648340	0.879550	0.872130
H811	H81	0.637600	0.911700	0.870100
C1481	C148	0.690280	0.865540	0.849850
H821	H82	0.711500	0.889500	0.838400
C1491	C149	0.702830	0.816390	0.843400
C1501	C150	0.674450	0.783200	0.866140
H831	H83	0.682500	0.750300	0.863300
C1511	C151	0.633820	0.795790	0.893480
H841	H84	0.615000	0.771700	0.908500
C1521	C152	0.747120	0.803190	0.814720
C1531	C153	0.761800	0.829350	0.773820
H851	H85	0.744200	0.856700	0.764000
O331	O33	0.553760	0.828240	0.947520
O341	O34	0.562650	0.903410	0.925690
C1541	C154	0.577030	0.139430	0.074630
C1551	C155	0.621480	0.155280	0.101730
C1561	C156	0.648340	0.120450	0.127870
H861	H86	0.637600	0.088300	0.129900
C1571	C157	0.690280	0.134460	0.150150
H871	H87	0.711500	0.110500	0.161600
C1581	C158	0.702830	0.183610	0.156600
C1591	C159	0.674450	0.216800	0.133860
H881	H88	0.682500	0.249700	0.136700
C1601	C160	0.633820	0.204210	0.106520
H891	H89	0.615000	0.228300	0.091500
C1611	C161	0.747120	0.196810	0.185280
C1621	C162	0.761800	0.170650	0.226180
H901	H90	0.744200	0.143300	0.236000
O351	O35	0.553760	0.171760	0.052480
O361	O36	0.562650	0.096590	0.074310
C1631	C163	0.422970	0.139430	0.925370
C1641	C164	0.378520	0.155280	0.898270
C1651	C165	0.351660	0.120450	0.872130
H911	H91	0.362400	0.088300	0.870100
C1661	C166	0.309720	0.134460	0.849850
H921	H92	0.288500	0.110500	0.838400
C1671	C167	0.297170	0.183610	0.843400
C1681	C168	0.325550	0.216800	0.866140
H931	H93	0.317500	0.249700	0.863300
C1691	C169	0.366180	0.204210	0.893480
H941	H94	0.385000	0.228300	0.908500
C1701	C170	0.252880	0.196810	0.814720
C1711	C171	0.238200	0.170650	0.773820
H951	H95	0.255800	0.143300	0.764000
O371	O37	0.446240	0.171760	0.947520
O381	O38	0.437350	0.096590	0.925690
C1721	C172	0.422970	0.860570	0.074630
C1731	C173	0.378520	0.844720	0.101730
C1741	C174	0.351660	0.879550	0.127870
H961	H96	0.362400	0.911700	0.129900
C1751	C175	0.309720	0.865540	0.150150
H971	H97	0.288500	0.889500	0.161600
C1761	C176	0.297170	0.816390	0.156600
C1771	C177	0.325550	0.783200	0.133860
H981	H98	0.317500	0.750300	0.136700
C1781	C178	0.366180	0.795790	0.106520
H991	H99	0.385000	0.771700	0.091500
C1791	C179	0.252880	0.803190	0.185280
C1801	C180	0.238200	0.829350	0.226180
H1001	H100	0.255800	0.856700	0.236000
O391	O39	0.446240	0.828240	0.052480
O401	O40	0.437350	0.903410	0.074310
C1811	C181	0.925370	0.577030	0.860570
C1821	C182	0.898270	0.621480	0.844720
C1831	C183	0.872130	0.648340	0.879550
H1011	H101	0.870100	0.637600	0.911700
C1841	C184	0.849850	0.690280	0.865540
H1021	H102	0.838400	0.711500	0.889500
C1851	C185	0.843400	0.702830	0.816390
C1861	C186	0.866140	0.674450	0.783200
H1031	H103	0.863300	0.682500	0.750300
C1871	C187	0.893480	0.633820	0.795790
H1041	H104	0.908500	0.615000	0.771700
C1881	C188	0.814720	0.747120	0.803190
C1891	C189	0.773820	0.761800	0.829350
H1051	H105	0.764000	0.744200	0.856700
O411	O41	0.947520	0.553760	0.828240
O421	O42	0.925690	0.562650	0.903410
C1901	C190	0.074630	0.577030	0.139430
C1911	C191	0.101730	0.621480	0.155280
C1921	C192	0.127870	0.648340	0.120450
H1061	H106	0.129900	0.637600	0.088300
C1931	C193	0.150150	0.690280	0.134460
H1071	H107	0.161600	0.711500	0.110500
C1941	C194	0.156600	0.702830	0.183610
C1951	C195	0.133860	0.674450	0.216800
H1081	H108	0.136700	0.682500	0.249700
C1961	C196	0.106520	0.633820	0.204210
H1091	H109	0.091500	0.615000	0.228300
C1971	C197	0.185280	0.747120	0.196810
C1981	C198	0.226180	0.761800	0.170650
H1101	H110	0.236000	0.744200	0.143300
O431	O43	0.052480	0.553760	0.171760
O441	O44	0.074310	0.562650	0.096590
C1991	C199	0.925370	0.422970	0.139430
C2001	C200	0.898270	0.378520	0.155280
C2011	C201	0.872130	0.351660	0.120450
H1111	H111	0.870100	0.362400	0.088300
C2021	C202	0.849850	0.309720	0.134460
H1121	H112	0.838400	0.288500	0.110500
C2031	C203	0.843400	0.297170	0.183610
C2041	C204	0.866140	0.325550	0.216800
H1131	H113	0.863300	0.317500	0.249700
C2051	C205	0.893480	0.366180	0.204210
H1141	H114	0.908500	0.385000	0.228300
C2061	C206	0.814720	0.252880	0.196810
C2071	C207	0.773820	0.238200	0.170650
H1151	H115	0.764000	0.255800	0.143300
O451	O45	0.947520	0.446240	0.171760
O461	O46	0.925690	0.437350	0.096590
C2081	C208	0.074630	0.422970	0.860570
C2091	C209	0.101730	0.378520	0.844720
C2101	C210	0.127870	0.351660	0.879550
H1161	H116	0.129900	0.362400	0.911700
C2111	C211	0.150150	0.309720	0.865540
H1171	H117	0.161600	0.288500	0.889500
C2121	C212	0.156600	0.297170	0.816390
C2131	C213	0.133860	0.325550	0.783200
H1181	H118	0.136700	0.317500	0.750300
C2141	C214	0.106520	0.366180	0.795790
H1191	H119	0.091500	0.385000	0.771700
C2151	C215	0.185280	0.252880	0.803190
C2161	C216	0.226180	0.238200	0.829350
H1201	H120	0.236000	0.255800	0.856700
O471	O47	0.052480	0.446240	0.828240
O481	O48	0.074310	0.437350	0.903410
Mg11	Mg1	0.172180	0.000000	0.500000
Mg21	Mg2	0.827820	0.000000	0.500000
Mg31	Mg3	0.500000	0.172180	0.000000
Mg41	Mg4	0.500000	0.827820	0.000000
Mg51	Mg5	0.000000	0.500000	0.172180
Mg61	Mg6	0.000000	0.500000	0.827820
C2171	C217	0.639430	0.574630	0.922970
C2181	C218	0.655280	0.601730	0.878520
C2191	C219	0.620450	0.627870	0.851660
H1211	H121	0.588300	0.629900	0.862400
C2201	C220	0.634460	0.650150	0.809720
H1221	H122	0.610500	0.661600	0.788500
C2211	C221	0.683610	0.656600	0.797170
C2221	C222	0.716800	0.633860	0.825550
H1231	H123	0.749700	0.636700	0.817500
C2231	C223	0.704210	0.606520	0.866180
H1241	H124	0.728300	0.591500	0.885000
C2241	C224	0.696810	0.685280	0.752880
C2251	C225	0.670650	0.726180	0.738200
H1251	H125	0.643300	0.736000	0.755800
O491	O49	0.671760	0.552480	0.946240
O501	O50	0.596590	0.574310	0.937350
C2261	C226	0.360570	0.425370	0.922970
C2271	C227	0.344720	0.398270	0.878520
C2281	C228	0.379550	0.372130	0.851660
H1261	H126	0.411700	0.370100	0.862400
C2291	C229	0.365540	0.349850	0.809720
H1271	H127	0.389500	0.338400	0.788500
C2301	C230	0.316390	0.343400	0.797170
C2311	C231	0.283200	0.366140	0.825550
H1281	H128	0.250300	0.363300	0.817500
C2321	C232	0.295790	0.393480	0.866180
H1291	H129	0.271700	0.408500	0.885000
C2331	C233	0.303190	0.314720	0.752880
C2341	C234	0.329350	0.273820	0.738200
H1301	H130	0.356700	0.264000	0.755800
O511	O51	0.328240	0.447520	0.946240
O521	O52	0.403410	0.425690	0.937350
C2351	C235	0.360570	0.574630	0.077030
C2361	C236	0.344720	0.601730	0.121480
C2371	C237	0.379550	0.627870	0.148340
H1311	H131	0.411700	0.629900	0.137600
C2381	C238	0.365540	0.650150	0.190280
H1321	H132	0.389500	0.661600	0.211500
C2391	C239	0.316390	0.656600	0.202830
C2401	C240	0.283200	0.633860	0.174450
H1331	H133	0.250300	0.636700	0.182500
C2411	C241	0.295790	0.606520	0.133820
H1341	H134	0.271700	0.591500	0.115000
C2421	C242	0.303190	0.685280	0.247120
C2431	C243	0.329350	0.726180	0.261800
H1351	H135	0.356700	0.736000	0.244200
O531	O53	0.328240	0.552480	0.053760
O541	O54	0.403410	0.574310	0.062650
C2441	C244	0.639430	0.425370	0.077030
C2451	C245	0.655280	0.398270	0.121480
C2461	C246	0.620450	0.372130	0.148340
H1361	H136	0.588300	0.370100	0.137600
C2471	C247	0.634460	0.349850	0.190280
H1371	H137	0.610500	0.338400	0.211500
C2481	C248	0.683610	0.343400	0.202830
C2491	C249	0.716800	0.366140	0.174450
H1381	H138	0.749700	0.363300	0.182500
C2501	C250	0.704210	0.393480	0.133820
H1391	H139	0.728300	0.408500	0.115000
C2511	C251	0.696810	0.314720	0.247120
C2521	C252	0.670650	0.273820	0.261800
H1401	H140	0.643300	0.264000	0.244200
O551	O55	0.671760	0.447520	0.053760
O561	O56	0.596590	0.425690	0.062650
C2531	C253	0.922970	0.639430	0.574630
C2541	C254	0.878520	0.655280	0.601730
C2551	C255	0.851660	0.620450	0.627870
H1411	H141	0.862400	0.588300	0.629900
C2561	C256	0.809720	0.634460	0.650150
H1421	H142	0.788500	0.610500	0.661600
C2571	C257	0.797170	0.683610	0.656600
C2581	C258	0.825550	0.716800	0.633860
H1431	H143	0.817500	0.749700	0.636700
C2591	C259	0.866180	0.704210	0.606520
H1441	H144	0.885000	0.728300	0.591500
C2601	C260	0.752880	0.696810	0.685280
C2611	C261	0.738200	0.670650	0.726180
H1451	H145	0.755800	0.643300	0.736000
O571	O57	0.946240	0.671760	0.552480
O581	O58	0.937350	0.596590	0.574310
C2621	C262	0.922970	0.360570	0.425370
C2631	C263	0.878520	0.344720	0.398270
C2641	C264	0.851660	0.379550	0.372130
H1461	H146	0.862400	0.411700	0.370100
C2651	C265	0.809720	0.365540	0.349850
H1471	H147	0.788500	0.389500	0.338400
C2661	C266	0.797170	0.316390	0.343400
C2671	C267	0.825550	0.283200	0.366140
H1481	H148	0.817500	0.250300	0.363300
C2681	C268	0.866180	0.295790	0.393480
H1491	H149	0.885000	0.271700	0.408500
C2691	C269	0.752880	0.303190	0.314720
C2701	C270	0.738200	0.329350	0.273820
H1501	H150	0.755800	0.356700	0.264000
O591	O59	0.946240	0.328240	0.447520
O601	O60	0.937350	0.403410	0.425690
C2711	C271	0.077030	0.360570	0.574630
C2721	C272	0.121480	0.344720	0.601730
C2731	C273	0.148340	0.379550	0.627870
H1511	H151	0.137600	0.411700	0.629900
C2741	C274	0.190280	0.365540	0.650150
H1521	H152	0.211500	0.389500	0.661600
C2751	C275	0.202830	0.316390	0.656600
C2761	C276	0.174450	0.283200	0.633860
H1531	H153	0.182500	0.250300	0.636700
C2771	C277	0.133820	0.295790	0.606520
H1541	H154	0.115000	0.271700	0.591500
C2781	C278	0.247120	0.303190	0.685280
C2791	C279	0.261800	0.329350	0.726180
H1551	H155	0.244200	0.356700	0.736000
O611	O61	0.053760	0.328240	0.552480
O621	O62	0.062650	0.403410	0.574310
C2801	C280	0.077030	0.639430	0.425370
C2811	C281	0.121480	0.655280	0.398270
C2821	C282	0.148340	0.620450	0.372130
H1561	H156	0.137600	0.588300	0.370100
C2831	C283	0.190280	0.634460	0.349850
H1571	H157	0.211500	0.610500	0.338400
C2841	C284	0.202830	0.683610	0.343400
C2851	C285	0.174450	0.716800	0.366140
H1581	H158	0.182500	0.749700	0.363300
C2861	C286	0.133820	0.704210	0.393480
H1591	H159	0.115000	0.728300	0.408500
C2871	C287	0.247120	0.696810	0.314720
C2881	C288	0.261800	0.670650	0.273820
H1601	H160	0.244200	0.643300	0.264000
O631	O63	0.053760	0.671760	0.447520
O641	O64	0.062650	0.596590	0.425690
C2891	C289	0.574630	0.922970	0.639430
C2901	C290	0.601730	0.878520	0.655280
C2911	C291	0.627870	0.851660	0.620450
H1611	H161	0.629900	0.862400	0.588300
C2921	C292	0.650150	0.809720	0.634460
H1621	H162	0.661600	0.788500	0.610500
C2931	C293	0.656600	0.797170	0.683610
C2941	C294	0.633860	0.825550	0.716800
H1631	H163	0.636700	0.817500	0.749700
C2951	C295	0.606520	0.866180	0.704210
H1641	H164	0.591500	0.885000	0.728300
C2961	C296	0.685280	0.752880	0.696810
C2971	C297	0.726180	0.738200	0.670650
H1651	H165	0.736000	0.755800	0.643300
O651	O65	0.552480	0.946240	0.671760
O661	O66	0.574310	0.937350	0.596590
C2981	C298	0.425370	0.922970	0.360570
C2991	C299	0.398270	0.878520	0.344720
C3001	C300	0.372130	0.851660	0.379550
H1661	H166	0.370100	0.862400	0.411700
C3011	C301	0.349850	0.809720	0.365540
H1671	H167	0.338400	0.788500	0.389500
C3021	C302	0.343400	0.797170	0.316390
C3031	C303	0.366140	0.825550	0.283200
H1681	H168	0.363300	0.817500	0.250300
C3041	C304	0.393480	0.866180	0.295790
H1691	H169	0.408500	0.885000	0.271700
C3051	C305	0.314720	0.752880	0.303190
C3061	C306	0.273820	0.738200	0.329350
H1701	H170	0.264000	0.755800	0.356700
O671	O67	0.447520	0.946240	0.328240
O681	O68	0.425690	0.937350	0.403410
C3071	C307	0.574630	0.077030	0.360570
C3081	C308	0.601730	0.121480	0.344720
C3091	C309	0.627870	0.148340	0.379550
H1711	H171	0.629900	0.137600	0.411700
C3101	C310	0.650150	0.190280	0.365540
H1721	H172	0.661600	0.211500	0.389500
C3111	C311	0.656600	0.202830	0.316390
C3121	C312	0.633860	0.174450	0.283200
H1731	H173	0.636700	0.182500	0.250300
C3131	C313	0.606520	0.133820	0.295790
H1741	H174	0.591500	0.115000	0.271700
C3141	C314	0.685280	0.247120	0.303190
C3151	C315	0.726180	0.261800	0.329350
H1751	H175	0.736000	0.244200	0.356700
O691	O69	0.552480	0.053760	0.328240
O701	O70	0.574310	0.062650	0.403410
C3161	C316	0.425370	0.077030	0.639430
C3171	C317	0.398270	0.121480	0.655280
C3181	C318	0.372130	0.148340	0.620450
H1761	H176	0.370100	0.137600	0.588300
C3191	C319	0.349850	0.190280	0.634460
H1771	H177	0.338400	0.211500	0.610500
C3201	C320	0.343400	0.202830	0.683610
C3211	C321	0.366140	0.174450	0.716800
H1781	H178	0.363300	0.182500	0.749700
C3221	C322	0.393480	0.133820	0.704210
H1791	H179	0.408500	0.115000	0.728300
C3231	C323	0.314720	0.247120	0.696810
C3241	C324	0.273820	0.261800	0.670650
H1801	H180	0.264000	0.244200	0.643300
O711	O71	0.447520	0.053760	0.671760
O721	O72	0.425690	0.062650	0.596590
C3251	C325	0.360570	0.425370	0.077030
C3261	C326	0.344720	0.398270	0.121480
C3271	C327	0.379550	0.372130	0.148340
H1811	H181	0.411700	0.370100	0.137600
C3281	C328	0.365540	0.349850	0.190280
H1821	H182	0.389500	0.338400	0.211500
C3291	C329	0.316390	0.343400	0.202830
C3301	C330	0.283200	0.366140	0.174450
H1831	H183	0.250300	0.363300	0.182500
C3311	C331	0.295790	0.393480	0.133820
H1841	H184	0.271700	0.408500	0.115000
C3321	C332	0.303190	0.314720	0.247120
C3331	C333	0.329350	0.273820	0.261800
H1851	H185	0.356700	0.264000	0.244200
O731	O73	0.328240	0.447520	0.053760
O741	O74	0.403410	0.425690	0.062650
C3341	C334	0.639430	0.574630	0.077030
C3351	C335	0.655280	0.601730	0.121480
C3361	C336	0.620450	0.627870	0.148340
H1861	H186	0.588300	0.629900	0.137600
C3371	C337	0.634460	0.650150	0.190280
H1871	H187	0.610500	0.661600	0.211500
C3381	C338	0.683610	0.656600	0.202830
C3391	C339	0.716800	0.633860	0.174450
H1881	H188	0.749700	0.636700	0.182500
C3401	C340	0.704210	0.606520	0.133820
H1891	H189	0.728300	0.591500	0.115000
C3411	C341	0.696810	0.685280	0.247120
C3421	C342	0.670650	0.726180	0.261800
H1901	H190	0.643300	0.736000	0.244200
O751	O75	0.671760	0.552480	0.053760
O761	O76	0.596590	0.574310	0.062650
C3431	C343	0.639430	0.425370	0.922970
C3441	C344	0.655280	0.398270	0.878520
C3451	C345	0.620450	0.372130	0.851660
H1911	H191	0.588300	0.370100	0.862400
C3461	C346	0.634460	0.349850	0.809720
H1921	H192	0.610500	0.338400	0.788500
C3471	C347	0.683610	0.343400	0.797170
C3481	C348	0.716800	0.366140	0.825550
H1931	H193	0.749700	0.363300	0.817500
C3491	C349	0.704210	0.393480	0.866180
H1941	H194	0.728300	0.408500	0.885000
C3501	C350	0.696810	0.314720	0.752880
C3511	C351	0.670650	0.273820	0.738200
H1951	H195	0.643300	0.264000	0.755800
O771	O77	0.671760	0.447520	0.946240
O781	O78	0.596590	0.425690	0.937350
C3521	C352	0.360570	0.574630	0.922970
C3531	C353	0.344720	0.601730	0.878520
C3541	C354	0.379550	0.627870	0.851660
H1961	H196	0.411700	0.629900	0.862400
C3551	C355	0.365540	0.650150	0.809720
H1971	H197	0.389500	0.661600	0.788500
C3561	C356	0.316390	0.656600	0.797170
C3571	C357	0.283200	0.633860	0.825550
H1981	H198	0.250300	0.636700	0.817500
C3581	C358	0.295790	0.606520	0.866180
H1991	H199	0.271700	0.591500	0.885000
C3591	C359	0.303190	0.685280	0.752880
C3601	C360	0.329350	0.726180	0.738200
H2001	H200	0.356700	0.736000	0.755800
O791	O79	0.328240	0.552480	0.946240
O801	O80	0.403410	0.574310	0.937350
C3611	C361	0.077030	0.360570	0.425370
C3621	C362	0.121480	0.344720	0.398270
C3631	C363	0.148340	0.379550	0.372130
H2011	H201	0.137600	0.411700	0.370100
C3641	C364	0.190280	0.365540	0.349850
H2021	H202	0.211500	0.389500	0.338400
C3651	C365	0.202830	0.316390	0.343400
C3661	C366	0.174450	0.283200	0.366140
H2031	H203	0.182500	0.250300	0.363300
C3671	C367	0.133820	0.295790	0.393480
H2041	H204	0.115000	0.271700	0.408500
C3681	C368	0.247120	0.303190	0.314720
C3691	C369	0.261800	0.329350	0.273820
H2051	H205	0.244200	0.356700	0.264000
O811	O81	0.053760	0.328240	0.447520
O821	O82	0.062650	0.403410	0.425690
C3701	C370	0.077030	0.639430	0.574630
C3711	C371	0.121480	0.655280	0.601730
C3721	C372	0.148340	0.620450	0.627870
H2061	H206	0.137600	0.588300	0.629900
C3731	C373	0.190280	0.634460	0.650150
H2071	H207	0.211500	0.610500	0.661600
C3741	C374	0.202830	0.683610	0.656600
C3751	C375	0.174450	0.716800	0.633860
H2081	H208	0.182500	0.749700	0.636700
C3761	C376	0.133820	0.704210	0.606520
H2091	H209	0.115000	0.728300	0.591500
C3771	C377	0.247120	0.696810	0.685280
C3781	C378	0.261800	0.670650	0.726180
H2101	H210	0.244200	0.643300	0.736000
O831	O83	0.053760	0.671760	0.552480
O841	O84	0.062650	0.596590	0.574310
C3791	C379	0.922970	0.639430	0.425370
C3801	C380	0.878520	0.655280	0.398270
C3811	C381	0.851660	0.620450	0.372130
H2111	H211	0.862400	0.588300	0.370100
C3821	C382	0.809720	0.634460	0.349850
H2121	H212	0.788500	0.610500	0.338400
C3831	C383	0.797170	0.683610	0.343400
C3841	C384	0.825550	0.716800	0.366140
H2131	H213	0.817500	0.749700	0.363300
C3851	C385	0.866180	0.704210	0.393480
H2141	H214	0.885000	0.728300	0.408500
C3861	C386	0.752880	0.696810	0.314720
C3871	C387	0.738200	0.670650	0.273820
H2151	H215	0.755800	0.643300	0.264000
O851	O85	0.946240	0.671760	0.447520
O861	O86	0.937350	0.596590	0.425690
C3881	C388	0.922970	0.360570	0.574630
C3891	C389	0.878520	0.344720	0.601730
C3901	C390	0.851660	0.379550	0.627870
H2161	H216	0.862400	0.411700	0.629900
C3911	C391	0.809720	0.365540	0.650150
H2171	H217	0.788500	0.389500	0.661600
C3921	C392	0.797170	0.316390	0.656600
C3931	C393	0.825550	0.283200	0.633860
H2181	H218	0.817500	0.250300	0.636700
C3941	C394	0.866180	0.295790	0.606520
H2191	H219	0.885000	0.271700	0.591500
C3951	C395	0.752880	0.303190	0.685280
C3961	C396	0.738200	0.329350	0.726180
H2201	H220	0.755800	0.356700	0.736000
O871	O87	0.946240	0.328240	0.552480
O881	O88	0.937350	0.403410	0.574310
C3971	C397	0.425370	0.077030	0.360570
C3981	C398	0.398270	0.121480	0.344720
C3991	C399	0.372130	0.148340	0.379550
H2211	H221	0.370100	0.137600	0.411700
C4001	C400	0.349850	0.190280	0.365540
H2221	H222	0.338400	0.211500	0.389500
C4011	C401	0.343400	0.202830	0.316390
C4021	C402	0.366140	0.174450	0.283200
H2231	H223	0.363300	0.182500	0.250300
C4031	C403	0.393480	0.133820	0.295790
H2241	H224	0.408500	0.115000	0.271700
C4041	C404	0.314720	0.247120	0.303190
C4051	C405	0.273820	0.261800	0.329350
H2251	H225	0.264000	0.244200	0.356700
O891	O89	0.447520	0.053760	0.328240
O901	O90	0.425690	0.062650	0.403410
C4061	C406	0.574630	0.077030	0.639430
C4071	C407	0.601730	0.121480	0.655280
C4081	C408	0.627870	0.148340	0.620450
H2261	H226	0.629900	0.137600	0.588300
C4091	C409	0.650150	0.190280	0.634460
H2271	H227	0.661600	0.211500	0.610500
C4101	C410	0.656600	0.202830	0.683610
C4111	C411	0.633860	0.174450	0.716800
H2281	H228	0.636700	0.182500	0.749700
C4121	C412	0.606520	0.133820	0.704210
H2291	H229	0.591500	0.115000	0.728300
C4131	C413	0.685280	0.247120	0.696810
C4141	C414	0.726180	0.261800	0.670650
H2301	H230	0.736000	0.244200	0.643300
O911	O91	0.552480	0.053760	0.671760
O921	O92	0.574310	0.062650	0.596590
C4151	C415	0.425370	0.922970	0.639430
C4161	C416	0.398270	0.878520	0.655280
C4171	C417	0.372130	0.851660	0.620450
H2311	H231	0.370100	0.862400	0.588300
C4181	C418	0.349850	0.809720	0.634460
H2321	H232	0.338400	0.788500	0.610500
C4191	C419	0.343400	0.797170	0.683610
C4201	C420	0.366140	0.825550	0.716800
H2331	H233	0.363300	0.817500	0.749700
C4211	C421	0.393480	0.866180	0.704210
H2341	H234	0.408500	0.885000	0.728300
C4221	C422	0.314720	0.752880	0.696810
C4231	C423	0.273820	0.738200	0.670650
H2351	H235	0.264000	0.755800	0.643300
O931	O93	0.447520	0.946240	0.671760
O941	O94	0.425690	0.937350	0.596590
C4241	C424	0.574630	0.922970	0.360570
C4251	C425	0.601730	0.878520	0.344720
C4261	C426	0.627870	0.851660	0.379550
H2361	H236	0.629900	0.862400	0.411700
C4271	C427	0.650150	0.809720	0.365540
H2371	H237	0.661600	0.788500	0.389500
C4281	C428	0.656600	0.797170	0.316390
C4291	C429	0.633860	0.825550	0.283200
H2381	H238	0.636700	0.817500	0.250300
C4301	C430	0.606520	0.866180	0.295790
H2391	H239	0.591500	0.885000	0.271700
C4311	C431	0.685280	0.752880	0.303190
C4321	C432	0.726180	0.738200	0.329350
H2401	H240	0.736000	0.755800	0.356700
O951	O95	0.552480	0.946240	0.328240
O961	O96	0.574310	0.937350	0.403410
Mg71	Mg7	0.672180	0.500000	0.000000
Mg81	Mg8	0.327820	0.500000	0.000000
Mg91	Mg9	0.000000	0.672180	0.500000
Mg101	Mg10	0.000000	0.327820	0.500000
Mg111	Mg11	0.500000	0.000000	0.672180
Mg121	Mg12	0.500000	0.000000	0.327820
