data_XUGDOU_clean_PM
_symmetry_space_group_name_H-M	'P1'
_cell_length_a	16.538000
_cell_length_b	9.904000
_cell_length_c	21.902000
_cell_angle_alpha	90.000000
_cell_angle_beta	109.804000
_cell_angle_gamma	90.000000
_symmetry_Int_Tables_number 1

loop_
_symmetry_equiv_pos_as_xyz
'x,y,z'

loop_
_atom_site_label
_atom_site_type_symbol
_atom_site_fract_x
_atom_site_fract_y
_atom_site_fract_z
N11	N1	0.368600	0.038600	0.084900
N21	N2	0.403900	0.169700	0.101800
N31	N3	0.409500	0.195800	0.166900
C11	C1	0.377600	0.081000	0.190200
N41	N4	0.352400	0.983700	0.139500
C21	C2	0.243500	0.274000	0.425400
C31	C3	0.316100	0.179000	0.453300
H11	H1	0.321700	0.161600	0.498200
H21	H2	0.301500	0.093500	0.430200
C41	C4	0.400800	0.223000	0.451400
C51	C5	0.293500	0.004000	0.257900
C61	C6	0.388300	0.007000	0.259300
H31	H3	0.411400	0.916100	0.261000
H41	H4	0.424800	0.058400	0.295900
C71	C7	0.021300	0.708500	0.349100
C81	C8	0.033800	0.703000	0.420700
H51	H5	0.038500	0.794200	0.437700
H61	H6	0.087100	0.656300	0.443300
C91	C9	0.960100	0.631200	0.433500
C101	C10	0.884800	0.059100	0.426500
C111	C11	0.830000	0.999000	0.460700
H71	H7	0.862700	0.931300	0.491100
H81	H8	0.781200	0.954400	0.429400
C121	C12	0.797500	0.105000	0.497300
Cd11	Cd1	0.101730	0.029750	0.353200
Cd21	Cd2	0.364250	0.539190	0.486610
Cd31	Cd3	0.970970	0.389360	0.335650
Cd41	Cd4	0.758810	0.329730	0.379950
N51	N5	0.160600	0.237500	0.394600
N61	N6	0.119700	0.353300	0.380100
N71	N7	0.170200	0.455100	0.400300
N81	N8	0.249600	0.408900	0.430000
N91	N9	0.437300	0.342200	0.471700
N101	N10	0.517300	0.331200	0.465500
N111	N11	0.525000	0.205000	0.443400
N121	N12	0.453200	0.146000	0.434500
N131	N13	0.188700	0.996500	0.289800
N141	N14	0.173600	0.921100	0.239300
N151	N15	0.238800	0.924000	0.218400
N161	N16	0.267700	0.049000	0.305200
N171	N17	0.984900	0.080600	0.387300
N181	N18	0.937800	0.186900	0.371200
N191	N19	0.873900	0.178000	0.395400
N201	N20	0.955400	0.997900	0.422200
N211	N21	0.805200	0.090300	0.559300
N221	N22	0.766300	0.205100	0.573100
N231	N23	0.735100	0.274300	0.520500
N241	N24	0.752800	0.214600	0.470800
N251	N25	0.987500	0.656200	0.249700
N261	N26	0.992900	0.609000	0.307800
N271	N27	0.013000	0.781200	0.255900
N281	N28	0.034900	0.818500	0.318200
N291	N29	0.918300	0.687200	0.468900
N301	N30	0.854800	0.594300	0.465300
N311	N31	0.864200	0.489200	0.431200
N321	N32	0.930000	0.508200	0.410700
N331	N33	0.631400	0.538600	0.415100
N341	N34	0.596100	0.669700	0.398200
N351	N35	0.590500	0.695800	0.333100
C131	C13	0.622400	0.581000	0.309800
N361	N36	0.647600	0.483700	0.360500
C141	C14	0.756500	0.774000	0.074600
C151	C15	0.683900	0.679000	0.046700
H91	H9	0.678300	0.661600	0.001800
H101	H10	0.698500	0.593500	0.069800
C161	C16	0.599200	0.723000	0.048600
C171	C17	0.706500	0.504000	0.242100
C181	C18	0.611700	0.507000	0.240700
H111	H11	0.588600	0.416100	0.239000
H121	H12	0.575200	0.558400	0.204100
C191	C19	0.978700	0.208500	0.150900
C201	C20	0.966200	0.203000	0.079300
H131	H13	0.961500	0.294200	0.062300
H141	H14	0.912900	0.156300	0.056700
C211	C21	0.039900	0.131200	0.066500
C221	C22	0.115200	0.559100	0.073500
C231	C23	0.170000	0.499000	0.039300
H151	H15	0.137300	0.431300	0.008900
H161	H16	0.218800	0.454400	0.070600
C241	C24	0.202500	0.605000	0.002700
Cd51	Cd5	0.898270	0.529750	0.146800
Cd61	Cd6	0.635750	0.039190	0.013390
Cd71	Cd7	0.029030	0.889360	0.164350
Cd81	Cd8	0.241190	0.829730	0.120050
N371	N37	0.839400	0.737500	0.105400
N381	N38	0.880300	0.853300	0.119900
N391	N39	0.829800	0.955100	0.099700
N401	N40	0.750400	0.908900	0.070000
N411	N41	0.562700	0.842200	0.028300
N421	N42	0.482700	0.831200	0.034500
N431	N43	0.475000	0.705000	0.056600
N441	N44	0.546800	0.646000	0.065500
N451	N45	0.811300	0.496500	0.210200
N461	N46	0.826400	0.421100	0.260700
N471	N47	0.761200	0.424000	0.281600
N481	N48	0.732300	0.549000	0.194800
N491	N49	0.015100	0.580600	0.112700
N501	N50	0.062200	0.686900	0.128800
N511	N51	0.126100	0.678000	0.104600
N521	N52	0.044600	0.497900	0.077800
N531	N53	0.194800	0.590300	0.940700
N541	N54	0.233700	0.705100	0.926900
N551	N55	0.264900	0.774300	0.979500
N561	N56	0.247200	0.714600	0.029200
N571	N57	0.012500	0.156200	0.250300
N581	N58	0.007100	0.109000	0.192200
N591	N59	0.987000	0.281200	0.244100
N601	N60	0.965100	0.318500	0.181800
N611	N61	0.081700	0.187200	0.031100
N621	N62	0.145200	0.094300	0.034700
N631	N63	0.135800	0.989200	0.068800
N641	N64	0.070000	0.008200	0.089300
N651	N65	0.631400	0.961400	0.915100
N661	N66	0.596100	0.830300	0.898200
N671	N67	0.590500	0.804200	0.833100
C251	C25	0.622400	0.919000	0.809800
N681	N68	0.647600	0.016300	0.860500
C261	C26	0.756500	0.726000	0.574600
C271	C27	0.683900	0.821000	0.546700
H171	H17	0.678300	0.838400	0.501800
H181	H18	0.698500	0.906500	0.569800
C281	C28	0.599200	0.777000	0.548600
C291	C29	0.706500	0.996000	0.742100
C301	C30	0.611700	0.993000	0.740700
H191	H19	0.588600	0.083900	0.739000
H201	H20	0.575200	0.941600	0.704100
C311	C31	0.978700	0.291500	0.650900
C321	C32	0.966200	0.297000	0.579300
H211	H21	0.961500	0.205800	0.562300
H221	H22	0.912900	0.343700	0.556700
C331	C33	0.039900	0.368800	0.566500
C341	C34	0.115200	0.940900	0.573500
C351	C35	0.170000	0.001000	0.539300
H231	H23	0.137300	0.068700	0.508900
H241	H24	0.218800	0.045600	0.570600
C361	C36	0.202500	0.895000	0.502700
Cd91	Cd9	0.898270	0.970250	0.646800
Cd101	Cd10	0.635750	0.460810	0.513390
Cd111	Cd11	0.029030	0.610640	0.664350
Cd121	Cd12	0.241190	0.670270	0.620050
N691	N69	0.839400	0.762500	0.605400
N701	N70	0.880300	0.646700	0.619900
N711	N71	0.829800	0.544900	0.599700
N721	N72	0.750400	0.591100	0.570000
N731	N73	0.562700	0.657800	0.528300
N741	N74	0.482700	0.668800	0.534500
N751	N75	0.475000	0.795000	0.556600
N761	N76	0.546800	0.854000	0.565500
N771	N77	0.811300	0.003500	0.710200
N781	N78	0.826400	0.078900	0.760700
N791	N79	0.761200	0.076000	0.781600
N801	N80	0.732300	0.951000	0.694800
N811	N81	0.015100	0.919400	0.612700
N821	N82	0.062200	0.813100	0.628800
N831	N83	0.126100	0.822000	0.604600
N841	N84	0.044600	0.002100	0.577800
N851	N85	0.194800	0.909700	0.440700
N861	N86	0.233700	0.794900	0.426900
N871	N87	0.264900	0.725700	0.479500
N881	N88	0.247200	0.785400	0.529200
N891	N89	0.012500	0.343800	0.750300
N901	N90	0.007100	0.391000	0.692200
N911	N91	0.987000	0.218800	0.744100
N921	N92	0.965100	0.181500	0.681800
N931	N93	0.081700	0.312800	0.531100
N941	N94	0.145200	0.405700	0.534700
N951	N95	0.135800	0.510800	0.568800
N961	N96	0.070000	0.491800	0.589300
N971	N97	0.368600	0.461400	0.584900
N981	N98	0.403900	0.330300	0.601800
N991	N99	0.409500	0.304200	0.666900
C371	C37	0.377600	0.419000	0.690200
N1001	N100	0.352400	0.516300	0.639500
C381	C38	0.243500	0.226000	0.925400
C391	C39	0.316100	0.321000	0.953300
H251	H25	0.321700	0.338400	0.998200
H261	H26	0.301500	0.406500	0.930200
C401	C40	0.400800	0.277000	0.951400
C411	C41	0.293500	0.496000	0.757900
C421	C42	0.388300	0.493000	0.759300
H271	H27	0.411400	0.583900	0.761000
H281	H28	0.424800	0.441600	0.795900
C431	C43	0.021300	0.791500	0.849100
C441	C44	0.033800	0.797000	0.920700
H291	H29	0.038500	0.705800	0.937700
H301	H30	0.087100	0.843700	0.943300
C451	C45	0.960100	0.868800	0.933500
C461	C46	0.884800	0.440900	0.926500
C471	C47	0.830000	0.501000	0.960700
H311	H31	0.862700	0.568700	0.991100
H321	H32	0.781200	0.545600	0.929400
C481	C48	0.797500	0.395000	0.997300
Cd131	Cd13	0.101730	0.470250	0.853200
Cd141	Cd14	0.364250	0.960810	0.986610
Cd151	Cd15	0.970970	0.110640	0.835650
Cd161	Cd16	0.758810	0.170270	0.879950
N1011	N101	0.160600	0.262500	0.894600
N1021	N102	0.119700	0.146700	0.880100
N1031	N103	0.170200	0.044900	0.900300
N1041	N104	0.249600	0.091100	0.930000
N1051	N105	0.437300	0.157800	0.971700
N1061	N106	0.517300	0.168800	0.965500
N1071	N107	0.525000	0.295000	0.943400
N1081	N108	0.453200	0.354000	0.934500
N1091	N109	0.188700	0.503500	0.789800
N1101	N110	0.173600	0.578900	0.739300
N1111	N111	0.238800	0.576000	0.718400
N1121	N112	0.267700	0.451000	0.805200
N1131	N113	0.984900	0.419400	0.887300
N1141	N114	0.937800	0.313100	0.871200
N1151	N115	0.873900	0.322000	0.895400
N1161	N116	0.955400	0.502100	0.922200
N1171	N117	0.805200	0.409700	0.059300
N1181	N118	0.766300	0.294900	0.073100
N1191	N119	0.735100	0.225700	0.020500
N1201	N120	0.752800	0.285400	0.970800
N1211	N121	0.987500	0.843800	0.749700
N1221	N122	0.992900	0.891000	0.807800
N1231	N123	0.013000	0.718800	0.755900
N1241	N124	0.034900	0.681500	0.818200
N1251	N125	0.918300	0.812800	0.968900
N1261	N126	0.854800	0.905700	0.965300
N1271	N127	0.864200	0.010800	0.931200
N1281	N128	0.930000	0.991800	0.910700
