data_XUGROI_clean_PM
_symmetry_space_group_name_H-M	'P1'
_cell_length_a	17.714000
_cell_length_b	12.567000
_cell_length_c	25.643000
_cell_angle_alpha	90.000000
_cell_angle_beta	93.440000
_cell_angle_gamma	90.000000
_symmetry_Int_Tables_number 1

loop_
_symmetry_equiv_pos_as_xyz
'x,y,z'

loop_
_atom_site_label
_atom_site_type_symbol
_atom_site_fract_x
_atom_site_fract_y
_atom_site_fract_z
Cu11	Cu1	0.821890	0.224900	0.503270
O11	O1	0.835400	0.345100	0.551400
O21	O2	0.705900	0.390400	0.546200
O31	O3	0.828600	0.677300	0.942800
O41	O4	0.700400	0.632800	0.938300
C11	C1	0.934200	0.537700	0.718000
C21	C2	0.932800	0.538800	0.774400
C31	C3	0.001200	0.538000	0.694900
H11	H1	0.002300	0.537600	0.658600
C41	C4	0.863400	0.550400	0.682100
C51	C5	0.852000	0.474200	0.638900
H21	H2	0.888200	0.422600	0.633200
C61	C6	0.786900	0.480600	0.607300
C71	C7	0.736300	0.567600	0.614400
H31	H3	0.694500	0.574500	0.591000
C81	C8	0.745700	0.639300	0.652600
H41	H4	0.711000	0.691000	0.645000
C91	C9	0.808400	0.630700	0.688800
H51	H5	0.813700	0.677300	0.716900
C101	C10	0.854500	0.528200	0.801100
C111	C11	0.847300	0.575200	0.844500
H61	H6	0.887200	0.616300	0.858700
C121	C12	0.780000	0.567000	0.872300
C131	C13	0.723000	0.498400	0.852300
H71	H7	0.677700	0.492300	0.868500
C141	C14	0.735200	0.442200	0.809600
H81	H8	0.698100	0.394700	0.797200
C151	C15	0.801700	0.451400	0.782300
H91	H9	0.810200	0.409100	0.753500
C161	C16	0.772900	0.397600	0.564800
C171	C17	0.768500	0.631300	0.924500
Cu21	Cu2	0.321890	0.724900	0.503270
O51	O5	0.335400	0.845100	0.551400
O61	O6	0.205900	0.890400	0.546200
O71	O7	0.328600	0.177300	0.942800
O81	O8	0.200400	0.132800	0.938300
C181	C18	0.434200	0.037700	0.718000
C191	C19	0.432800	0.038800	0.774400
C201	C20	0.501200	0.038000	0.694900
H101	H10	0.502300	0.037600	0.658600
C211	C21	0.363400	0.050400	0.682100
C221	C22	0.352000	0.974200	0.638900
H111	H11	0.388200	0.922600	0.633200
C231	C23	0.286900	0.980600	0.607300
C241	C24	0.236300	0.067600	0.614400
H121	H12	0.194500	0.074500	0.591000
C251	C25	0.245700	0.139300	0.652600
H131	H13	0.211000	0.191000	0.645000
C261	C26	0.308400	0.130700	0.688800
H141	H14	0.313700	0.177300	0.716900
C271	C27	0.354500	0.028200	0.801100
C281	C28	0.347300	0.075200	0.844500
H151	H15	0.387200	0.116300	0.858700
C291	C29	0.280000	0.067000	0.872300
C301	C30	0.223000	0.998400	0.852300
H161	H16	0.177700	0.992300	0.868500
C311	C31	0.235200	0.942200	0.809600
H171	H17	0.198100	0.894700	0.797200
C321	C32	0.301700	0.951400	0.782300
H181	H18	0.310200	0.909100	0.753500
C331	C33	0.272900	0.897600	0.564800
C341	C34	0.268500	0.131300	0.924500
Cu31	Cu3	0.178110	0.224900	0.996730
O91	O9	0.164600	0.345100	0.948600
O101	O10	0.294100	0.390400	0.953800
O111	O11	0.171400	0.677300	0.557200
O121	O12	0.299600	0.632800	0.561700
C351	C35	0.065800	0.537700	0.782000
C361	C36	0.067200	0.538800	0.725600
C371	C37	0.998800	0.538000	0.805100
H191	H19	0.997700	0.537600	0.841400
C381	C38	0.136600	0.550400	0.817900
C391	C39	0.148000	0.474200	0.861100
H201	H20	0.111800	0.422600	0.866800
C401	C40	0.213100	0.480600	0.892700
C411	C41	0.263700	0.567600	0.885600
H211	H21	0.305500	0.574500	0.909000
C421	C42	0.254300	0.639300	0.847400
H221	H22	0.289000	0.691000	0.855000
C431	C43	0.191600	0.630700	0.811200
H231	H23	0.186300	0.677300	0.783100
C441	C44	0.145500	0.528200	0.698900
C451	C45	0.152700	0.575200	0.655500
H241	H24	0.112800	0.616300	0.641300
C461	C46	0.220000	0.567000	0.627700
C471	C47	0.277000	0.498400	0.647700
H251	H25	0.322300	0.492300	0.631500
C481	C48	0.264800	0.442200	0.690400
H261	H26	0.301900	0.394700	0.702800
C491	C49	0.198300	0.451400	0.717700
H271	H27	0.189800	0.409100	0.746500
C501	C50	0.227100	0.397600	0.935200
C511	C51	0.231500	0.631300	0.575500
Cu41	Cu4	0.678110	0.724900	0.996730
O131	O13	0.664600	0.845100	0.948600
O141	O14	0.794100	0.890400	0.953800
O151	O15	0.671400	0.177300	0.557200
O161	O16	0.799600	0.132800	0.561700
C521	C52	0.565800	0.037700	0.782000
C531	C53	0.567200	0.038800	0.725600
C541	C54	0.498800	0.038000	0.805100
H281	H28	0.497700	0.037600	0.841400
C551	C55	0.636600	0.050400	0.817900
C561	C56	0.648000	0.974200	0.861100
H291	H29	0.611800	0.922600	0.866800
C571	C57	0.713100	0.980600	0.892700
C581	C58	0.763700	0.067600	0.885600
H301	H30	0.805500	0.074500	0.909000
C591	C59	0.754300	0.139300	0.847400
H311	H31	0.789000	0.191000	0.855000
C601	C60	0.691600	0.130700	0.811200
H321	H32	0.686300	0.177300	0.783100
C611	C61	0.645500	0.028200	0.698900
C621	C62	0.652700	0.075200	0.655500
H331	H33	0.612800	0.116300	0.641300
C631	C63	0.720000	0.067000	0.627700
C641	C64	0.777000	0.998400	0.647700
H341	H34	0.822300	0.992300	0.631500
C651	C65	0.764800	0.942200	0.690400
H351	H35	0.801900	0.894700	0.702800
C661	C66	0.698300	0.951400	0.717700
H361	H36	0.689800	0.909100	0.746500
C671	C67	0.727100	0.897600	0.935200
C681	C68	0.731500	0.131300	0.575500
Cu51	Cu5	0.178110	0.775100	0.496730
O171	O17	0.164600	0.654900	0.448600
O181	O18	0.294100	0.609600	0.453800
O191	O19	0.171400	0.322700	0.057200
O201	O20	0.299600	0.367200	0.061700
C691	C69	0.065800	0.462300	0.282000
C701	C70	0.067200	0.461200	0.225600
C711	C71	0.998800	0.462000	0.305100
H371	H37	0.997700	0.462400	0.341400
C721	C72	0.136600	0.449600	0.317900
C731	C73	0.148000	0.525800	0.361100
H381	H38	0.111800	0.577400	0.366800
C741	C74	0.213100	0.519400	0.392700
C751	C75	0.263700	0.432400	0.385600
H391	H39	0.305500	0.425500	0.409000
C761	C76	0.254300	0.360700	0.347400
H401	H40	0.289000	0.309000	0.355000
C771	C77	0.191600	0.369300	0.311200
H411	H41	0.186300	0.322700	0.283100
C781	C78	0.145500	0.471800	0.198900
C791	C79	0.152700	0.424800	0.155500
H421	H42	0.112800	0.383700	0.141300
C801	C80	0.220000	0.433000	0.127700
C811	C81	0.277000	0.501600	0.147700
H431	H43	0.322300	0.507700	0.131500
C821	C82	0.264800	0.557800	0.190400
H441	H44	0.301900	0.605300	0.202800
C831	C83	0.198300	0.548600	0.217700
H451	H45	0.189800	0.590900	0.246500
C841	C84	0.227100	0.602400	0.435200
C851	C85	0.231500	0.368700	0.075500
Cu61	Cu6	0.678110	0.275100	0.496730
O211	O21	0.664600	0.154900	0.448600
O221	O22	0.794100	0.109600	0.453800
O231	O23	0.671400	0.822700	0.057200
O241	O24	0.799600	0.867200	0.061700
C861	C86	0.565800	0.962300	0.282000
C871	C87	0.567200	0.961200	0.225600
C881	C88	0.498800	0.962000	0.305100
H461	H46	0.497700	0.962400	0.341400
C891	C89	0.636600	0.949600	0.317900
C901	C90	0.648000	0.025800	0.361100
H471	H47	0.611800	0.077400	0.366800
C911	C91	0.713100	0.019400	0.392700
C921	C92	0.763700	0.932400	0.385600
H481	H48	0.805500	0.925500	0.409000
C931	C93	0.754300	0.860700	0.347400
H491	H49	0.789000	0.809000	0.355000
C941	C94	0.691600	0.869300	0.311200
H501	H50	0.686300	0.822700	0.283100
C951	C95	0.645500	0.971800	0.198900
C961	C96	0.652700	0.924800	0.155500
H511	H51	0.612800	0.883700	0.141300
C971	C97	0.720000	0.933000	0.127700
C981	C98	0.777000	0.001600	0.147700
H521	H52	0.822300	0.007700	0.131500
C991	C99	0.764800	0.057800	0.190400
H531	H53	0.801900	0.105300	0.202800
C1001	C100	0.698300	0.048600	0.217700
H541	H54	0.689800	0.090900	0.246500
C1011	C101	0.727100	0.102400	0.435200
C1021	C102	0.731500	0.868700	0.075500
Cu71	Cu7	0.821890	0.775100	0.003270
O251	O25	0.835400	0.654900	0.051400
O261	O26	0.705900	0.609600	0.046200
O271	O27	0.828600	0.322700	0.442800
O281	O28	0.700400	0.367200	0.438300
C1031	C103	0.934200	0.462300	0.218000
C1041	C104	0.932800	0.461200	0.274400
C1051	C105	0.001200	0.462000	0.194900
H551	H55	0.002300	0.462400	0.158600
C1061	C106	0.863400	0.449600	0.182100
C1071	C107	0.852000	0.525800	0.138900
H561	H56	0.888200	0.577400	0.133200
C1081	C108	0.786900	0.519400	0.107300
C1091	C109	0.736300	0.432400	0.114400
H571	H57	0.694500	0.425500	0.091000
C1101	C110	0.745700	0.360700	0.152600
H581	H58	0.711000	0.309000	0.145000
C1111	C111	0.808400	0.369300	0.188800
H591	H59	0.813700	0.322700	0.216900
C1121	C112	0.854500	0.471800	0.301100
C1131	C113	0.847300	0.424800	0.344500
H601	H60	0.887200	0.383700	0.358700
C1141	C114	0.780000	0.433000	0.372300
C1151	C115	0.723000	0.501600	0.352300
H611	H61	0.677700	0.507700	0.368500
C1161	C116	0.735200	0.557800	0.309600
H621	H62	0.698100	0.605300	0.297200
C1171	C117	0.801700	0.548600	0.282300
H631	H63	0.810200	0.590900	0.253500
C1181	C118	0.772900	0.602400	0.064800
C1191	C119	0.768500	0.368700	0.424500
Cu81	Cu8	0.321890	0.275100	0.003270
O291	O29	0.335400	0.154900	0.051400
O301	O30	0.205900	0.109600	0.046200
O311	O31	0.328600	0.822700	0.442800
O321	O32	0.200400	0.867200	0.438300
C1201	C120	0.434200	0.962300	0.218000
C1211	C121	0.432800	0.961200	0.274400
C1221	C122	0.501200	0.962000	0.194900
H641	H64	0.502300	0.962400	0.158600
C1231	C123	0.363400	0.949600	0.182100
C1241	C124	0.352000	0.025800	0.138900
H651	H65	0.388200	0.077400	0.133200
C1251	C125	0.286900	0.019400	0.107300
C1261	C126	0.236300	0.932400	0.114400
H661	H66	0.194500	0.925500	0.091000
C1271	C127	0.245700	0.860700	0.152600
H671	H67	0.211000	0.809000	0.145000
C1281	C128	0.308400	0.869300	0.188800
H681	H68	0.313700	0.822700	0.216900
C1291	C129	0.354500	0.971800	0.301100
C1301	C130	0.347300	0.924800	0.344500
H691	H69	0.387200	0.883700	0.358700
C1311	C131	0.280000	0.933000	0.372300
C1321	C132	0.223000	0.001600	0.352300
H701	H70	0.177700	0.007700	0.368500
C1331	C133	0.235200	0.057800	0.309600
H711	H71	0.198100	0.105300	0.297200
C1341	C134	0.301700	0.048600	0.282300
H721	H72	0.310200	0.090900	0.253500
C1351	C135	0.272900	0.102400	0.064800
C1361	C136	0.268500	0.868700	0.424500
