data_XUGWAZ_clean_PM
_symmetry_space_group_name_H-M	'P1'
_cell_length_a	15.376300
_cell_length_b	15.376300
_cell_length_c	9.808600
_cell_angle_alpha	90.000000
_cell_angle_beta	90.000000
_cell_angle_gamma	90.000000
_symmetry_Int_Tables_number 1

loop_
_symmetry_equiv_pos_as_xyz
'x,y,z'

loop_
_atom_site_label
_atom_site_type_symbol
_atom_site_fract_x
_atom_site_fract_y
_atom_site_fract_z
O11	O1	0.031190	0.874440	0.122340
C11	C1	0.886920	0.744420	0.122000
H11	H1	0.912100	0.761600	0.203900
C21	C2	0.812070	0.694710	0.121900
H21	H2	0.787100	0.678000	0.204200
O21	O2	0.968810	0.125560	0.122340
C31	C3	0.113080	0.255580	0.122000
H31	H3	0.087900	0.238400	0.203900
C41	C4	0.187930	0.305290	0.121900
H41	H4	0.212900	0.322000	0.204200
O31	O3	0.125560	0.031190	0.122340
C51	C5	0.255580	0.886920	0.122000
H51	H5	0.238400	0.912100	0.203900
C61	C6	0.305290	0.812070	0.121900
H61	H6	0.322000	0.787100	0.204200
O41	O4	0.874440	0.968810	0.122340
C71	C7	0.744420	0.113080	0.122000
H71	H7	0.761600	0.087900	0.203900
C81	C8	0.694710	0.187930	0.121900
H81	H8	0.678000	0.212900	0.204200
O51	O5	0.968810	0.874440	0.377660
C91	C9	0.113080	0.744420	0.378000
H91	H9	0.087900	0.761600	0.296100
C101	C10	0.187930	0.694710	0.378100
H101	H10	0.212900	0.678000	0.295800
O61	O6	0.031190	0.125560	0.377660
C111	C11	0.886920	0.255580	0.378000
H111	H11	0.912100	0.238400	0.296100
C121	C12	0.812070	0.305290	0.378100
H121	H12	0.787100	0.322000	0.295800
O71	O7	0.874440	0.031190	0.377660
C131	C13	0.744420	0.886920	0.378000
H131	H13	0.761600	0.912100	0.296100
C141	C14	0.694710	0.812070	0.378100
H141	H14	0.678000	0.787100	0.295800
O81	O8	0.125560	0.968810	0.377660
C151	C15	0.255580	0.113080	0.378000
H151	H15	0.238400	0.087900	0.296100
C161	C16	0.305290	0.187930	0.378100
H161	H16	0.322000	0.212900	0.295800
O91	O9	0.968810	0.125560	0.877660
C171	C17	0.113080	0.255580	0.878000
H171	H17	0.087900	0.238400	0.796100
C181	C18	0.187930	0.305290	0.878100
H181	H18	0.212900	0.322000	0.795800
O101	O10	0.031190	0.874440	0.877660
C191	C19	0.886920	0.744420	0.878000
H191	H19	0.912100	0.761600	0.796100
C201	C20	0.812070	0.694710	0.878100
H201	H20	0.787100	0.678000	0.795800
O111	O11	0.874440	0.968810	0.877660
C211	C21	0.744420	0.113080	0.878000
H211	H21	0.761600	0.087900	0.796100
C221	C22	0.694710	0.187930	0.878100
H221	H22	0.678000	0.212900	0.795800
O121	O12	0.125560	0.031190	0.877660
C231	C23	0.255580	0.886920	0.878000
H231	H23	0.238400	0.912100	0.796100
C241	C24	0.305290	0.812070	0.878100
H241	H24	0.322000	0.787100	0.795800
O131	O13	0.031190	0.125560	0.622340
C251	C25	0.886920	0.255580	0.622000
H251	H25	0.912100	0.238400	0.703900
C261	C26	0.812070	0.305290	0.621900
H261	H26	0.787100	0.322000	0.704200
O141	O14	0.968810	0.874440	0.622340
C271	C27	0.113080	0.744420	0.622000
H271	H27	0.087900	0.761600	0.703900
C281	C28	0.187930	0.694710	0.621900
H281	H28	0.212900	0.678000	0.704200
O151	O15	0.125560	0.968810	0.622340
C291	C29	0.255580	0.113080	0.622000
H291	H29	0.238400	0.087900	0.703900
C301	C30	0.305290	0.187930	0.621900
H301	H30	0.322000	0.212900	0.704200
O161	O16	0.874440	0.031190	0.622340
C311	C31	0.744420	0.886920	0.622000
H311	H31	0.761600	0.912100	0.703900
C321	C32	0.694710	0.812070	0.621900
H321	H32	0.678000	0.787100	0.704200
Dy11	Dy1	0.000000	0.000000	0.250000
Dy21	Dy2	0.000000	0.000000	0.750000
S11	S1	0.026060	0.821490	0.000000
O171	O17	0.089260	0.752390	0.000000
N11	N1	0.530220	0.629710	0.000000
C331	C33	0.923750	0.768250	0.000000
C341	C34	0.773800	0.669450	0.000000
C351	C35	0.691190	0.618150	0.000000
C361	C36	0.613170	0.664240	0.000000
C371	C37	0.606120	0.758070	0.000000
H331	H33	0.652000	0.797500	0.000000
C381	C38	0.520700	0.777700	0.000000
H341	H34	0.497100	0.833400	0.000000
C391	C39	0.472500	0.697630	0.000000
S21	S2	0.973940	0.178510	0.000000
O181	O18	0.910740	0.247610	0.000000
N21	N2	0.469780	0.370290	0.000000
C401	C40	0.076250	0.231750	0.000000
C411	C41	0.226200	0.330550	0.000000
C421	C42	0.308810	0.381850	0.000000
C431	C43	0.386830	0.335760	0.000000
C441	C44	0.393880	0.241930	0.000000
H351	H35	0.348000	0.202500	0.000000
C451	C45	0.479300	0.222300	0.000000
H361	H36	0.502900	0.166600	0.000000
C461	C46	0.527500	0.302370	0.000000
S31	S3	0.178510	0.026060	0.000000
O191	O19	0.247610	0.089260	0.000000
N31	N3	0.370290	0.530220	0.000000
C471	C47	0.231750	0.923750	0.000000
C481	C48	0.330550	0.773800	0.000000
C491	C49	0.381850	0.691190	0.000000
C501	C50	0.335760	0.613170	0.000000
C511	C51	0.241930	0.606120	0.000000
H371	H37	0.202500	0.652000	0.000000
C521	C52	0.222300	0.520700	0.000000
H381	H38	0.166600	0.497100	0.000000
C531	C53	0.302370	0.472500	0.000000
S41	S4	0.821490	0.973940	0.000000
O201	O20	0.752390	0.910740	0.000000
N41	N4	0.629710	0.469780	0.000000
C541	C54	0.768250	0.076250	0.000000
C551	C55	0.669450	0.226200	0.000000
C561	C56	0.618150	0.308810	0.000000
C571	C57	0.664240	0.386830	0.000000
C581	C58	0.758070	0.393880	0.000000
H391	H39	0.797500	0.348000	0.000000
C591	C59	0.777700	0.479300	0.000000
H401	H40	0.833400	0.502900	0.000000
C601	C60	0.697630	0.527500	0.000000
S51	S5	0.973940	0.821490	0.500000
O211	O21	0.910740	0.752390	0.500000
N51	N5	0.469780	0.629710	0.500000
C611	C61	0.076250	0.768250	0.500000
C621	C62	0.226200	0.669450	0.500000
C631	C63	0.308810	0.618150	0.500000
C641	C64	0.386830	0.664240	0.500000
C651	C65	0.393880	0.758070	0.500000
H411	H41	0.348000	0.797500	0.500000
C661	C66	0.479300	0.777700	0.500000
H421	H42	0.502900	0.833400	0.500000
C671	C67	0.527500	0.697630	0.500000
S61	S6	0.026060	0.178510	0.500000
O221	O22	0.089260	0.247610	0.500000
N61	N6	0.530220	0.370290	0.500000
C681	C68	0.923750	0.231750	0.500000
C691	C69	0.773800	0.330550	0.500000
C701	C70	0.691190	0.381850	0.500000
C711	C71	0.613170	0.335760	0.500000
C721	C72	0.606120	0.241930	0.500000
H431	H43	0.652000	0.202500	0.500000
C731	C73	0.520700	0.222300	0.500000
H441	H44	0.497100	0.166600	0.500000
C741	C74	0.472500	0.302370	0.500000
S71	S7	0.821490	0.026060	0.500000
O231	O23	0.752390	0.089260	0.500000
N71	N7	0.629710	0.530220	0.500000
C751	C75	0.768250	0.923750	0.500000
C761	C76	0.669450	0.773800	0.500000
C771	C77	0.618150	0.691190	0.500000
C781	C78	0.664240	0.613170	0.500000
C791	C79	0.758070	0.606120	0.500000
H451	H45	0.797500	0.652000	0.500000
C801	C80	0.777700	0.520700	0.500000
H461	H46	0.833400	0.497100	0.500000
C811	C81	0.697630	0.472500	0.500000
S81	S8	0.178510	0.973940	0.500000
O241	O24	0.247610	0.910740	0.500000
N81	N8	0.370290	0.469780	0.500000
C821	C82	0.231750	0.076250	0.500000
C831	C83	0.330550	0.226200	0.500000
C841	C84	0.381850	0.308810	0.500000
C851	C85	0.335760	0.386830	0.500000
C861	C86	0.241930	0.393880	0.500000
H471	H47	0.202500	0.348000	0.500000
C871	C87	0.222300	0.479300	0.500000
H481	H48	0.166600	0.502900	0.500000
C881	C88	0.302370	0.527500	0.500000
