data_XUGWUS_clean_PM
_symmetry_space_group_name_H-M	'P1'
_cell_length_a	12.387900
_cell_length_b	21.407400
_cell_length_c	27.111900
_cell_angle_alpha	90.000000
_cell_angle_beta	90.000000
_cell_angle_gamma	90.000000
_symmetry_Int_Tables_number 1

loop_
_symmetry_equiv_pos_as_xyz
'x,y,z'

loop_
_atom_site_label
_atom_site_type_symbol
_atom_site_fract_x
_atom_site_fract_y
_atom_site_fract_z
Cd11	Cd1	0.589950	0.581720	0.902440
Cd21	Cd2	0.510600	0.627030	0.611370
Cd31	Cd3	0.410050	0.081720	0.597560
Cd41	Cd4	0.489400	0.127030	0.888630
Cd51	Cd5	0.910050	0.081720	0.402440
Cd61	Cd6	0.989400	0.127030	0.111370
Cd71	Cd7	0.089950	0.581720	0.097560
Cd81	Cd8	0.010600	0.627030	0.388630
H11	H1	0.548900	0.596600	0.726200
H21	H2	0.859100	0.569500	0.760400
H31	H3	0.897400	0.566900	0.677200
H41	H4	0.760700	0.583200	0.621100
H51	H5	0.389200	0.575800	0.980600
H61	H6	0.102000	0.584300	0.913500
H71	H7	0.191500	0.585100	0.839000
H81	H8	0.377000	0.585400	0.837200
H91	H9	0.305700	0.609400	0.527200
H101	H10	0.220500	0.777300	0.476700
H111	H11	0.340900	0.821700	0.532300
H121	H12	0.445300	0.757700	0.580400
H131	H13	0.437100	0.006000	0.954600
H141	H14	0.458000	0.900500	0.958000
H151	H15	0.668000	0.912500	0.848800
H161	H16	0.641400	0.017300	0.847400
H171	H17	0.697100	0.815100	0.854300
H181	H18	0.703400	0.708800	0.853000
H191	H19	0.478100	0.698300	0.950700
H201	H20	0.461600	0.804100	0.954000
H211	H21	0.451100	0.096600	0.773800
H221	H22	0.140900	0.069500	0.739600
H231	H23	0.102600	0.066900	0.822800
H241	H24	0.239300	0.083200	0.878900
H251	H25	0.610800	0.075800	0.519400
H261	H26	0.898000	0.084300	0.586500
H271	H27	0.808500	0.085100	0.661000
H281	H28	0.623000	0.085400	0.662800
H291	H29	0.694300	0.109400	0.972800
H301	H30	0.779500	0.277300	0.023300
H311	H31	0.659100	0.321700	0.967700
H321	H32	0.554700	0.257700	0.919600
H331	H33	0.562900	0.506000	0.545400
H341	H34	0.542000	0.400500	0.542000
H351	H35	0.332000	0.412500	0.651200
H361	H36	0.358600	0.517300	0.652600
H371	H37	0.302900	0.315100	0.645700
H381	H38	0.296600	0.208800	0.647000
H391	H39	0.521900	0.198300	0.549300
H401	H40	0.538400	0.304100	0.546000
H411	H41	0.951100	0.096600	0.226200
H421	H42	0.640900	0.069500	0.260400
H431	H43	0.602600	0.066900	0.177200
H441	H44	0.739300	0.083200	0.121100
H451	H45	0.110800	0.075800	0.480600
H461	H46	0.398000	0.084300	0.413500
H471	H47	0.308500	0.085100	0.339000
H481	H48	0.123000	0.085400	0.337200
H491	H49	0.194300	0.109400	0.027200
H501	H50	0.279500	0.277300	0.976700
H511	H51	0.159100	0.321700	0.032300
H521	H52	0.054700	0.257700	0.080400
H531	H53	0.062900	0.506000	0.454600
H541	H54	0.042000	0.400500	0.458000
H551	H55	0.832000	0.412500	0.348800
H561	H56	0.858600	0.517300	0.347400
H571	H57	0.802900	0.315100	0.354300
H581	H58	0.796600	0.208800	0.353000
H591	H59	0.021900	0.198300	0.450700
H601	H60	0.038400	0.304100	0.454000
H611	H61	0.048900	0.596600	0.273800
H621	H62	0.359100	0.569500	0.239600
H631	H63	0.397400	0.566900	0.322800
H641	H64	0.260700	0.583200	0.378900
H651	H65	0.889200	0.575800	0.019400
H661	H66	0.602000	0.584300	0.086500
H671	H67	0.691500	0.585100	0.161000
H681	H68	0.877000	0.585400	0.162800
H691	H69	0.805700	0.609400	0.472800
H701	H70	0.720500	0.777300	0.523300
H711	H71	0.840900	0.821700	0.467700
H721	H72	0.945300	0.757700	0.419600
H731	H73	0.937100	0.006000	0.045400
H741	H74	0.958000	0.900500	0.042000
H751	H75	0.168000	0.912500	0.151200
H761	H76	0.141400	0.017300	0.152600
H771	H77	0.197100	0.815100	0.145700
H781	H78	0.203400	0.708800	0.147000
H791	H79	0.978100	0.698300	0.049300
H801	H80	0.961600	0.804100	0.046000
C11	C1	0.620300	0.591470	0.716410
C21	C2	0.697800	0.582730	0.752470
C31	C3	0.804300	0.574450	0.737240
C41	C4	0.827300	0.573760	0.688100
C51	C5	0.744300	0.583390	0.654580
C61	C6	0.666200	0.581550	0.805510
C71	C7	0.348800	0.578780	0.951770
C81	C8	0.236300	0.581060	0.955520
C91	C9	0.177000	0.583330	0.912480
C101	C10	0.230200	0.584200	0.868410
C111	C11	0.342000	0.583670	0.867530
C121	C12	0.181300	0.581120	0.004750
C131	C13	0.314300	0.652570	0.527380
C141	C14	0.251100	0.687880	0.495620
C151	C15	0.261700	0.752160	0.497330
C161	C16	0.333900	0.778580	0.529960
C171	C17	0.395400	0.739690	0.559080
C181	C18	0.173500	0.657790	0.459430
C191	C19	0.485000	0.987050	0.932780
C201	C20	0.496900	0.923220	0.934820
C211	C21	0.565300	0.892420	0.903170
C221	C22	0.619500	0.930180	0.870930
C231	C23	0.603900	0.993630	0.870540
C241	C24	0.574800	0.823810	0.902760
C251	C25	0.649100	0.792440	0.873750
C261	C26	0.653000	0.728170	0.873310
C271	C27	0.521500	0.722110	0.930000
C281	C28	0.511100	0.786220	0.932460
C291	C29	0.379700	0.091470	0.783590
C301	C30	0.302200	0.082730	0.747530
C311	C31	0.195700	0.074450	0.762760
C321	C32	0.172700	0.073760	0.811900
C331	C33	0.255700	0.083390	0.845420
C341	C34	0.333800	0.081550	0.694490
C351	C35	0.651200	0.078780	0.548230
C361	C36	0.763700	0.081060	0.544480
C371	C37	0.823000	0.083330	0.587520
C381	C38	0.769800	0.084200	0.631590
C391	C39	0.658000	0.083670	0.632470
C401	C40	0.818700	0.081120	0.495250
C411	C41	0.685700	0.152570	0.972620
C421	C42	0.748900	0.187880	0.004380
C431	C43	0.738300	0.252160	0.002670
C441	C44	0.666100	0.278580	0.970040
C451	C45	0.604600	0.239690	0.940920
C461	C46	0.826500	0.157790	0.040570
C471	C47	0.515000	0.487050	0.567220
C481	C48	0.503100	0.423220	0.565180
C491	C49	0.434700	0.392420	0.596830
C501	C50	0.380500	0.430180	0.629070
C511	C51	0.396100	0.493630	0.629460
C521	C52	0.425200	0.323810	0.597240
C531	C53	0.350900	0.292440	0.626250
C541	C54	0.347000	0.228170	0.626690
C551	C55	0.478500	0.222110	0.570000
C561	C56	0.488900	0.286220	0.567540
C571	C57	0.879700	0.091470	0.216410
C581	C58	0.802200	0.082730	0.252470
C591	C59	0.695700	0.074450	0.237240
C601	C60	0.672700	0.073760	0.188100
C611	C61	0.755700	0.083390	0.154580
C621	C62	0.833800	0.081550	0.305510
C631	C63	0.151200	0.078780	0.451770
C641	C64	0.263700	0.081060	0.455520
C651	C65	0.323000	0.083330	0.412480
C661	C66	0.269800	0.084200	0.368410
C671	C67	0.158000	0.083670	0.367530
C681	C68	0.318700	0.081120	0.504750
C691	C69	0.185700	0.152570	0.027380
C701	C70	0.248900	0.187880	0.995620
C711	C71	0.238300	0.252160	0.997330
C721	C72	0.166100	0.278580	0.029960
C731	C73	0.104600	0.239690	0.059080
C741	C74	0.326500	0.157790	0.959430
C751	C75	0.015000	0.487050	0.432780
C761	C76	0.003100	0.423220	0.434820
C771	C77	0.934700	0.392420	0.403170
C781	C78	0.880500	0.430180	0.370930
C791	C79	0.896100	0.493630	0.370540
C801	C80	0.925200	0.323810	0.402760
C811	C81	0.850900	0.292440	0.373750
C821	C82	0.847000	0.228170	0.373310
C831	C83	0.978500	0.222110	0.430000
C841	C84	0.988900	0.286220	0.432460
C851	C85	0.120300	0.591470	0.283590
C861	C86	0.197800	0.582730	0.247530
C871	C87	0.304300	0.574450	0.262760
C881	C88	0.327300	0.573760	0.311900
C891	C89	0.244300	0.583390	0.345420
C901	C90	0.166200	0.581550	0.194490
C911	C91	0.848800	0.578780	0.048230
C921	C92	0.736300	0.581060	0.044480
C931	C93	0.677000	0.583330	0.087520
C941	C94	0.730200	0.584200	0.131590
C951	C95	0.842000	0.583670	0.132470
C961	C96	0.681300	0.581120	0.995250
C971	C97	0.814300	0.652570	0.472620
C981	C98	0.751100	0.687880	0.504380
C991	C99	0.761700	0.752160	0.502670
C1001	C100	0.833900	0.778580	0.470040
C1011	C101	0.895400	0.739690	0.440920
C1021	C102	0.673500	0.657790	0.540570
C1031	C103	0.985000	0.987050	0.067220
C1041	C104	0.996900	0.923220	0.065180
C1051	C105	0.065300	0.892420	0.096830
C1061	C106	0.119500	0.930180	0.129070
C1071	C107	0.103900	0.993630	0.129460
C1081	C108	0.074800	0.823810	0.097240
C1091	C109	0.149100	0.792440	0.126250
C1101	C110	0.153000	0.728170	0.126690
C1111	C111	0.021500	0.722110	0.070000
C1121	C112	0.011100	0.786220	0.067540
N11	N1	0.642500	0.592930	0.668000
N21	N2	0.401100	0.580750	0.908180
N31	N3	0.387000	0.677280	0.558220
N41	N4	0.538400	0.022900	0.901320
N51	N5	0.588300	0.692200	0.900480
N61	N6	0.357500	0.092930	0.832000
N71	N7	0.598900	0.080750	0.591820
N81	N8	0.613000	0.177280	0.941780
N91	N9	0.461600	0.522900	0.598680
N101	N10	0.411700	0.192200	0.599520
N111	N11	0.857500	0.092930	0.168000
N121	N12	0.098900	0.080750	0.408180
N131	N13	0.113000	0.177280	0.058220
N141	N14	0.961600	0.522900	0.401320
N151	N15	0.911700	0.192200	0.400480
N161	N16	0.142500	0.592930	0.332000
N171	N17	0.901100	0.580750	0.091820
N181	N18	0.887000	0.677280	0.441780
N191	N19	0.038400	0.022900	0.098680
N201	N20	0.088300	0.692200	0.099520
O11	O1	0.568400	0.573950	0.816200
O21	O2	0.736800	0.588390	0.837930
O31	O3	0.238740	0.577890	0.043090
O41	O4	0.082400	0.585820	0.006740
O51	O5	0.155500	0.600990	0.463080
O61	O6	0.132300	0.692650	0.427400
O71	O7	0.431600	0.073950	0.683800
O81	O8	0.263200	0.088390	0.662070
O91	O9	0.761260	0.077890	0.456910
O101	O10	0.917600	0.085820	0.493260
O111	O11	0.844500	0.100990	0.036920
O121	O12	0.867700	0.192650	0.072600
O131	O13	0.931600	0.073950	0.316200
O141	O14	0.763200	0.088390	0.337930
O151	O15	0.261260	0.077890	0.543090
O161	O16	0.417600	0.085820	0.506740
O171	O17	0.344500	0.100990	0.963080
O181	O18	0.367700	0.192650	0.927400
O191	O19	0.068400	0.573950	0.183800
O201	O20	0.236800	0.588390	0.162070
O211	O21	0.738740	0.577890	0.956910
O221	O22	0.582400	0.585820	0.993260
O231	O23	0.655500	0.600990	0.536920
O241	O24	0.632300	0.692650	0.572600
Cd91	Cd9	0.089950	0.918280	0.597560
Cd101	Cd10	0.010600	0.872970	0.888630
Cd111	Cd11	0.910050	0.418280	0.902440
Cd121	Cd12	0.989400	0.372970	0.611370
Cd131	Cd13	0.410050	0.418280	0.097560
Cd141	Cd14	0.489400	0.372970	0.388630
Cd151	Cd15	0.589950	0.918280	0.402440
Cd161	Cd16	0.510600	0.872970	0.111370
H811	H81	0.048900	0.903400	0.773800
H821	H82	0.359100	0.930500	0.739600
H831	H83	0.397400	0.933100	0.822800
H841	H84	0.260700	0.916800	0.878900
H851	H85	0.889200	0.924200	0.519400
H861	H86	0.602000	0.915700	0.586500
H871	H87	0.691500	0.914900	0.661000
H881	H88	0.877000	0.914600	0.662800
H891	H89	0.805700	0.890600	0.972800
H901	H90	0.720500	0.722700	0.023300
H911	H91	0.840900	0.678300	0.967700
H921	H92	0.945300	0.742300	0.919600
H931	H93	0.937100	0.494000	0.545400
H941	H94	0.958000	0.599500	0.542000
H951	H95	0.168000	0.587500	0.651200
H961	H96	0.141400	0.482700	0.652600
H971	H97	0.197100	0.684900	0.645700
H981	H98	0.203400	0.791200	0.647000
H991	H99	0.978100	0.801700	0.549300
H1001	H100	0.961600	0.695900	0.546000
H1011	H101	0.951100	0.403400	0.726200
H1021	H102	0.640900	0.430500	0.760400
H1031	H103	0.602600	0.433100	0.677200
H1041	H104	0.739300	0.416800	0.621100
H1051	H105	0.110800	0.424200	0.980600
H1061	H106	0.398000	0.415700	0.913500
H1071	H107	0.308500	0.414900	0.839000
H1081	H108	0.123000	0.414600	0.837200
H1091	H109	0.194300	0.390600	0.527200
H1101	H110	0.279500	0.222700	0.476700
H1111	H111	0.159100	0.178300	0.532300
H1121	H112	0.054700	0.242300	0.580400
H1131	H113	0.062900	0.994000	0.954600
H1141	H114	0.042000	0.099500	0.958000
H1151	H115	0.832000	0.087500	0.848800
H1161	H116	0.858600	0.982700	0.847400
H1171	H117	0.802900	0.184900	0.854300
H1181	H118	0.796600	0.291200	0.853000
H1191	H119	0.021900	0.301700	0.950700
H1201	H120	0.038400	0.195900	0.954000
H1211	H121	0.451100	0.403400	0.273800
H1221	H122	0.140900	0.430500	0.239600
H1231	H123	0.102600	0.433100	0.322800
H1241	H124	0.239300	0.416800	0.378900
H1251	H125	0.610800	0.424200	0.019400
H1261	H126	0.898000	0.415700	0.086500
H1271	H127	0.808500	0.414900	0.161000
H1281	H128	0.623000	0.414600	0.162800
H1291	H129	0.694300	0.390600	0.472800
H1301	H130	0.779500	0.222700	0.523300
H1311	H131	0.659100	0.178300	0.467700
H1321	H132	0.554700	0.242300	0.419600
H1331	H133	0.562900	0.994000	0.045400
H1341	H134	0.542000	0.099500	0.042000
H1351	H135	0.332000	0.087500	0.151200
H1361	H136	0.358600	0.982700	0.152600
H1371	H137	0.302900	0.184900	0.145700
H1381	H138	0.296600	0.291200	0.147000
H1391	H139	0.521900	0.301700	0.049300
H1401	H140	0.538400	0.195900	0.046000
H1411	H141	0.548900	0.903400	0.226200
H1421	H142	0.859100	0.930500	0.260400
H1431	H143	0.897400	0.933100	0.177200
H1441	H144	0.760700	0.916800	0.121100
H1451	H145	0.389200	0.924200	0.480600
H1461	H146	0.102000	0.915700	0.413500
H1471	H147	0.191500	0.914900	0.339000
H1481	H148	0.377000	0.914600	0.337200
H1491	H149	0.305700	0.890600	0.027200
H1501	H150	0.220500	0.722700	0.976700
H1511	H151	0.340900	0.678300	0.032300
H1521	H152	0.445300	0.742300	0.080400
H1531	H153	0.437100	0.494000	0.454600
H1541	H154	0.458000	0.599500	0.458000
H1551	H155	0.668000	0.587500	0.348800
H1561	H156	0.641400	0.482700	0.347400
H1571	H157	0.697100	0.684900	0.354300
H1581	H158	0.703400	0.791200	0.353000
H1591	H159	0.478100	0.801700	0.450700
H1601	H160	0.461600	0.695900	0.454000
C1131	C113	0.120300	0.908530	0.783590
C1141	C114	0.197800	0.917270	0.747530
C1151	C115	0.304300	0.925550	0.762760
C1161	C116	0.327300	0.926240	0.811900
C1171	C117	0.244300	0.916610	0.845420
C1181	C118	0.166200	0.918450	0.694490
C1191	C119	0.848800	0.921220	0.548230
C1201	C120	0.736300	0.918940	0.544480
C1211	C121	0.677000	0.916670	0.587520
C1221	C122	0.730200	0.915800	0.631590
C1231	C123	0.842000	0.916330	0.632470
C1241	C124	0.681300	0.918880	0.495250
C1251	C125	0.814300	0.847430	0.972620
C1261	C126	0.751100	0.812120	0.004380
C1271	C127	0.761700	0.747840	0.002670
C1281	C128	0.833900	0.721420	0.970040
C1291	C129	0.895400	0.760310	0.940920
C1301	C130	0.673500	0.842210	0.040570
C1311	C131	0.985000	0.512950	0.567220
C1321	C132	0.996900	0.576780	0.565180
C1331	C133	0.065300	0.607580	0.596830
C1341	C134	0.119500	0.569820	0.629070
C1351	C135	0.103900	0.506370	0.629460
C1361	C136	0.074800	0.676190	0.597240
C1371	C137	0.149100	0.707560	0.626250
C1381	C138	0.153000	0.771830	0.626690
C1391	C139	0.021500	0.777890	0.570000
C1401	C140	0.011100	0.713780	0.567540
C1411	C141	0.879700	0.408530	0.716410
C1421	C142	0.802200	0.417270	0.752470
C1431	C143	0.695700	0.425550	0.737240
C1441	C144	0.672700	0.426240	0.688100
C1451	C145	0.755700	0.416610	0.654580
C1461	C146	0.833800	0.418450	0.805510
C1471	C147	0.151200	0.421220	0.951770
C1481	C148	0.263700	0.418940	0.955520
C1491	C149	0.323000	0.416670	0.912480
C1501	C150	0.269800	0.415800	0.868410
C1511	C151	0.158000	0.416330	0.867530
C1521	C152	0.318700	0.418880	0.004750
C1531	C153	0.185700	0.347430	0.527380
C1541	C154	0.248900	0.312120	0.495620
C1551	C155	0.238300	0.247840	0.497330
C1561	C156	0.166100	0.221420	0.529960
C1571	C157	0.104600	0.260310	0.559080
C1581	C158	0.326500	0.342210	0.459430
C1591	C159	0.015000	0.012950	0.932780
C1601	C160	0.003100	0.076780	0.934820
C1611	C161	0.934700	0.107580	0.903170
C1621	C162	0.880500	0.069820	0.870930
C1631	C163	0.896100	0.006370	0.870540
C1641	C164	0.925200	0.176190	0.902760
C1651	C165	0.850900	0.207560	0.873750
C1661	C166	0.847000	0.271830	0.873310
C1671	C167	0.978500	0.277890	0.930000
C1681	C168	0.988900	0.213780	0.932460
C1691	C169	0.379700	0.408530	0.283590
C1701	C170	0.302200	0.417270	0.247530
C1711	C171	0.195700	0.425550	0.262760
C1721	C172	0.172700	0.426240	0.311900
C1731	C173	0.255700	0.416610	0.345420
C1741	C174	0.333800	0.418450	0.194490
C1751	C175	0.651200	0.421220	0.048230
C1761	C176	0.763700	0.418940	0.044480
C1771	C177	0.823000	0.416670	0.087520
C1781	C178	0.769800	0.415800	0.131590
C1791	C179	0.658000	0.416330	0.132470
C1801	C180	0.818700	0.418880	0.995250
C1811	C181	0.685700	0.347430	0.472620
C1821	C182	0.748900	0.312120	0.504380
C1831	C183	0.738300	0.247840	0.502670
C1841	C184	0.666100	0.221420	0.470040
C1851	C185	0.604600	0.260310	0.440920
C1861	C186	0.826500	0.342210	0.540570
C1871	C187	0.515000	0.012950	0.067220
C1881	C188	0.503100	0.076780	0.065180
C1891	C189	0.434700	0.107580	0.096830
C1901	C190	0.380500	0.069820	0.129070
C1911	C191	0.396100	0.006370	0.129460
C1921	C192	0.425200	0.176190	0.097240
C1931	C193	0.350900	0.207560	0.126250
C1941	C194	0.347000	0.271830	0.126690
C1951	C195	0.478500	0.277890	0.070000
C1961	C196	0.488900	0.213780	0.067540
C1971	C197	0.620300	0.908530	0.216410
C1981	C198	0.697800	0.917270	0.252470
C1991	C199	0.804300	0.925550	0.237240
C2001	C200	0.827300	0.926240	0.188100
C2011	C201	0.744300	0.916610	0.154580
C2021	C202	0.666200	0.918450	0.305510
C2031	C203	0.348800	0.921220	0.451770
C2041	C204	0.236300	0.918940	0.455520
C2051	C205	0.177000	0.916670	0.412480
C2061	C206	0.230200	0.915800	0.368410
C2071	C207	0.342000	0.916330	0.367530
C2081	C208	0.181300	0.918880	0.504750
C2091	C209	0.314300	0.847430	0.027380
C2101	C210	0.251100	0.812120	0.995620
C2111	C211	0.261700	0.747840	0.997330
C2121	C212	0.333900	0.721420	0.029960
C2131	C213	0.395400	0.760310	0.059080
C2141	C214	0.173500	0.842210	0.959430
C2151	C215	0.485000	0.512950	0.432780
C2161	C216	0.496900	0.576780	0.434820
C2171	C217	0.565300	0.607580	0.403170
C2181	C218	0.619500	0.569820	0.370930
C2191	C219	0.603900	0.506370	0.370540
C2201	C220	0.574800	0.676190	0.402760
C2211	C221	0.649100	0.707560	0.373750
C2221	C222	0.653000	0.771830	0.373310
C2231	C223	0.521500	0.777890	0.430000
C2241	C224	0.511100	0.713780	0.432460
N211	N21	0.142500	0.907070	0.832000
N221	N22	0.901100	0.919250	0.591820
N231	N23	0.887000	0.822720	0.941780
N241	N24	0.038400	0.477100	0.598680
N251	N25	0.088300	0.807800	0.599520
N261	N26	0.857500	0.407070	0.668000
N271	N27	0.098900	0.419250	0.908180
N281	N28	0.113000	0.322720	0.558220
N291	N29	0.961600	0.977100	0.901320
N301	N30	0.911700	0.307800	0.900480
N311	N31	0.357500	0.407070	0.332000
N321	N32	0.598900	0.419250	0.091820
N331	N33	0.613000	0.322720	0.441780
N341	N34	0.461600	0.977100	0.098680
N351	N35	0.411700	0.307800	0.099520
N361	N36	0.642500	0.907070	0.168000
N371	N37	0.401100	0.919250	0.408180
N381	N38	0.387000	0.822720	0.058220
N391	N39	0.538400	0.477100	0.401320
N401	N40	0.588300	0.807800	0.400480
O251	O25	0.068400	0.926050	0.683800
O261	O26	0.236800	0.911610	0.662070
O271	O27	0.738740	0.922110	0.456910
O281	O28	0.582400	0.914180	0.493260
O291	O29	0.655500	0.899010	0.036920
O301	O30	0.632300	0.807350	0.072600
O311	O31	0.931600	0.426050	0.816200
O321	O32	0.763200	0.411610	0.837930
O331	O33	0.261260	0.422110	0.043090
O341	O34	0.417600	0.414180	0.006740
O351	O35	0.344500	0.399010	0.463080
O361	O36	0.367700	0.307350	0.427400
O371	O37	0.431600	0.426050	0.183800
O381	O38	0.263200	0.411610	0.162070
O391	O39	0.761260	0.422110	0.956910
O401	O40	0.917600	0.414180	0.993260
O411	O41	0.844500	0.399010	0.536920
O421	O42	0.867700	0.307350	0.572600
O431	O43	0.568400	0.926050	0.316200
O441	O44	0.736800	0.911610	0.337930
O451	O45	0.238740	0.922110	0.543090
O461	O46	0.082400	0.914180	0.506740
O471	O47	0.155500	0.899010	0.963080
O481	O48	0.132300	0.807350	0.927400
