data_XUHVON_clean_PM
_symmetry_space_group_name_H-M	'P1'
_cell_length_a	15.929300
_cell_length_b	10.922200
_cell_length_c	15.880300
_cell_angle_alpha	90.000000
_cell_angle_beta	115.246000
_cell_angle_gamma	90.000000
_symmetry_Int_Tables_number 1

loop_
_symmetry_equiv_pos_as_xyz
'x,y,z'

loop_
_atom_site_label
_atom_site_type_symbol
_atom_site_fract_x
_atom_site_fract_y
_atom_site_fract_z
Zn11	Zn1	0.295770	0.417180	0.288470
O11	O1	0.273020	0.531600	0.369950
O21	O2	0.162330	0.668600	0.327030
O31	O3	0.180300	0.950000	0.591250
O41	O4	0.321670	0.996700	0.696290
O51	O5	0.591500	0.769900	0.722390
O61	O6	0.582440	0.635160	0.615940
N11	N1	0.195060	0.293170	0.238220
N21	N2	0.143210	0.258900	0.280000
N31	N3	0.082730	0.175500	0.226650
N41	N4	0.170760	0.233150	0.157240
C11	C1	0.239070	0.629500	0.379440
C21	C2	0.296660	0.701100	0.466400
C31	C3	0.255660	0.787100	0.501520
H11	H1	0.192000	0.800700	0.471400
C41	C4	0.309430	0.853200	0.581790
C51	C5	0.404030	0.832700	0.625610
H21	H2	0.440300	0.878500	0.677900
C61	C6	0.445830	0.745000	0.592820
C71	C7	0.391700	0.679600	0.512630
H31	H3	0.419200	0.621300	0.489800
C81	C8	0.264760	0.939600	0.624860
C91	C9	0.546970	0.716500	0.647380
C101	C10	0.101020	0.162200	0.152290
C111	C11	0.049750	0.077700	0.074400
C121	C12	0.961100	0.040400	0.057830
H41	H4	0.934300	0.067200	0.096300
C131	C13	0.912090	0.962800	0.983710
H51	H5	0.852600	0.937900	0.973200
Zn21	Zn2	0.704230	0.917180	0.211530
O71	O7	0.726980	0.031600	0.130050
O81	O8	0.837670	0.168600	0.172970
O91	O9	0.819700	0.450000	0.908750
O101	O10	0.678330	0.496700	0.803710
O111	O11	0.408500	0.269900	0.777610
O121	O12	0.417560	0.135160	0.884060
N51	N5	0.804940	0.793170	0.261780
N61	N6	0.856790	0.758900	0.220000
N71	N7	0.917270	0.675500	0.273350
N81	N8	0.829240	0.733150	0.342760
C141	C14	0.760930	0.129500	0.120560
C151	C15	0.703340	0.201100	0.033600
C161	C16	0.744340	0.287100	0.998480
H61	H6	0.808000	0.300700	0.028600
C171	C17	0.690570	0.353200	0.918210
C181	C18	0.595970	0.332700	0.874390
H71	H7	0.559700	0.378500	0.822100
C191	C19	0.554170	0.245000	0.907180
C201	C20	0.608300	0.179600	0.987370
H81	H8	0.580800	0.121300	0.010200
C211	C21	0.735240	0.439600	0.875140
C221	C22	0.453030	0.216500	0.852620
C231	C23	0.898980	0.662200	0.347710
C241	C24	0.950250	0.577700	0.425600
C251	C25	0.038900	0.540400	0.442170
H91	H9	0.065700	0.567200	0.403700
C261	C26	0.087910	0.462800	0.516290
H101	H10	0.147400	0.437900	0.526800
Zn31	Zn3	0.704230	0.582820	0.711530
O131	O13	0.726980	0.468400	0.630050
O141	O14	0.837670	0.331400	0.672970
O151	O15	0.819700	0.050000	0.408750
O161	O16	0.678330	0.003300	0.303710
O171	O17	0.408500	0.230100	0.277610
O181	O18	0.417560	0.364840	0.384060
N91	N9	0.804940	0.706830	0.761780
N101	N10	0.856790	0.741100	0.720000
N111	N11	0.917270	0.824500	0.773350
N121	N12	0.829240	0.766850	0.842760
C271	C27	0.760930	0.370500	0.620560
C281	C28	0.703340	0.298900	0.533600
C291	C29	0.744340	0.212900	0.498480
H111	H11	0.808000	0.199300	0.528600
C301	C30	0.690570	0.146800	0.418210
C311	C31	0.595970	0.167300	0.374390
H121	H12	0.559700	0.121500	0.322100
C321	C32	0.554170	0.255000	0.407180
C331	C33	0.608300	0.320400	0.487370
H131	H13	0.580800	0.378700	0.510200
C341	C34	0.735240	0.060400	0.375140
C351	C35	0.453030	0.283500	0.352620
C361	C36	0.898980	0.837800	0.847710
C371	C37	0.950250	0.922300	0.925600
C381	C38	0.038900	0.959600	0.942170
H141	H14	0.065700	0.932800	0.903700
C391	C39	0.087910	0.037200	0.016290
H151	H15	0.147400	0.062100	0.026800
Zn41	Zn4	0.295770	0.082820	0.788470
O191	O19	0.273020	0.968400	0.869950
O201	O20	0.162330	0.831400	0.827030
O211	O21	0.180300	0.550000	0.091250
O221	O22	0.321670	0.503300	0.196290
O231	O23	0.591500	0.730100	0.222390
O241	O24	0.582440	0.864840	0.115940
N131	N13	0.195060	0.206830	0.738220
N141	N14	0.143210	0.241100	0.780000
N151	N15	0.082730	0.324500	0.726650
N161	N16	0.170760	0.266850	0.657240
C401	C40	0.239070	0.870500	0.879440
C411	C41	0.296660	0.798900	0.966400
C421	C42	0.255660	0.712900	0.001520
H161	H16	0.192000	0.699300	0.971400
C431	C43	0.309430	0.646800	0.081790
C441	C44	0.404030	0.667300	0.125610
H171	H17	0.440300	0.621500	0.177900
C451	C45	0.445830	0.755000	0.092820
C461	C46	0.391700	0.820400	0.012630
H181	H18	0.419200	0.878700	0.989800
C471	C47	0.264760	0.560400	0.124860
C481	C48	0.546970	0.783500	0.147380
C491	C49	0.101020	0.337800	0.652290
C501	C50	0.049750	0.422300	0.574400
C511	C51	0.961100	0.459600	0.557830
H191	H19	0.934300	0.432800	0.596300
C521	C52	0.912090	0.537200	0.483710
H201	H20	0.852600	0.562100	0.473200
