data_XUJPEY_clean_PM
_symmetry_space_group_name_H-M	'P1'
_cell_length_a	10.711000
_cell_length_b	13.796300
_cell_length_c	18.751100
_cell_angle_alpha	90.000000
_cell_angle_beta	98.158000
_cell_angle_gamma	90.000000
_symmetry_Int_Tables_number 1

loop_
_symmetry_equiv_pos_as_xyz
'x,y,z'

loop_
_atom_site_label
_atom_site_type_symbol
_atom_site_fract_x
_atom_site_fract_y
_atom_site_fract_z
Ni11	Ni1	0.398000	0.267700	0.524110
C11	C1	0.409500	0.135300	0.333160
C21	C2	0.416300	0.146100	0.259820
H11	H1	0.385400	0.203700	0.235800
C31	C3	0.467600	0.073600	0.221470
C41	C4	0.518500	0.990900	0.257470
H21	H2	0.554100	0.941200	0.231700
C51	C5	0.517000	0.981500	0.331190
C61	C6	0.457600	0.053000	0.368220
H31	H3	0.450800	0.044200	0.417800
C71	C7	0.355800	0.217300	0.372980
C81	C8	0.470600	0.085300	0.141240
C91	C9	0.583700	0.899900	0.372680
O11	O1	0.317880	0.195160	0.432400
O21	O2	0.354500	0.300430	0.347310
O31	O3	0.470100	0.171830	0.118970
O41	O4	0.473210	0.009720	0.104830
O51	O5	0.681000	0.866170	0.344140
O61	O6	0.550580	0.867670	0.427580
C101	C10	0.220900	0.766900	0.973190
C111	C11	0.105500	0.811900	0.970710
H41	H4	0.102200	0.879600	0.979400
C121	C12	0.992300	0.759100	0.955440
C131	C13	0.997700	0.659700	0.941580
H51	H5	0.922100	0.623700	0.929600
C141	C14	0.113700	0.614000	0.945320
C151	C15	0.224500	0.666900	0.961190
H61	H6	0.303600	0.634900	0.963900
C161	C16	0.344700	0.818200	0.990930
C171	C17	0.869100	0.807100	0.960750
C181	C18	0.120900	0.506400	0.933420
O71	O7	0.436810	0.764840	0.014280
O81	O8	0.346870	0.908020	0.981470
O91	O9	0.868100	0.890160	0.987740
O101	O10	0.769990	0.758690	0.938530
O111	O11	0.038200	0.459390	0.901370
O121	O12	0.231600	0.471050	0.964910
O131	O13	0.641690	0.897030	0.030230
Ni21	Ni2	0.602000	0.767700	0.975890
C191	C19	0.590500	0.635300	0.166840
C201	C20	0.583700	0.646100	0.240180
H71	H7	0.614600	0.703700	0.264200
C211	C21	0.532400	0.573600	0.278530
C221	C22	0.481500	0.490900	0.242530
H81	H8	0.445900	0.441200	0.268300
C231	C23	0.483000	0.481500	0.168810
C241	C24	0.542400	0.553000	0.131780
H91	H9	0.549200	0.544200	0.082200
C251	C25	0.644200	0.717300	0.127020
C261	C26	0.529400	0.585300	0.358760
C271	C27	0.416300	0.399900	0.127320
O141	O14	0.682120	0.695160	0.067600
O151	O15	0.645500	0.800430	0.152690
O161	O16	0.529900	0.671830	0.381030
O171	O17	0.526790	0.509720	0.395170
O181	O18	0.319000	0.366170	0.155860
O191	O19	0.449420	0.367670	0.072420
C281	C28	0.779100	0.266900	0.526810
C291	C29	0.894500	0.311900	0.529290
H101	H10	0.897800	0.379600	0.520600
C301	C30	0.007700	0.259100	0.544560
C311	C31	0.002300	0.159700	0.558420
H111	H11	0.077900	0.123700	0.570400
C321	C32	0.886300	0.114000	0.554680
C331	C33	0.775500	0.166900	0.538810
H121	H12	0.696400	0.134900	0.536100
C341	C34	0.655300	0.318200	0.509070
C351	C35	0.130900	0.307100	0.539250
C361	C36	0.879100	0.006400	0.566580
O201	O20	0.563190	0.264840	0.485720
O211	O21	0.653130	0.408020	0.518530
O221	O22	0.131900	0.390160	0.512260
O231	O23	0.230010	0.258690	0.561470
O241	O24	0.961800	0.959390	0.598630
O251	O25	0.768400	0.971050	0.535090
O261	O26	0.358310	0.397030	0.469770
Ni31	Ni3	0.602000	0.732300	0.475890
C371	C37	0.590500	0.864700	0.666840
C381	C38	0.583700	0.853900	0.740180
H131	H13	0.614600	0.796300	0.764200
C391	C39	0.532400	0.926400	0.778530
C401	C40	0.481500	0.009100	0.742530
H141	H14	0.445900	0.058800	0.768300
C411	C41	0.483000	0.018500	0.668810
C421	C42	0.542400	0.947000	0.631780
H151	H15	0.549200	0.955800	0.582200
C431	C43	0.644200	0.782700	0.627020
C441	C44	0.529400	0.914700	0.858760
C451	C45	0.416300	0.100100	0.627320
O271	O27	0.682120	0.804840	0.567600
O281	O28	0.645500	0.699570	0.652690
O291	O29	0.529900	0.828170	0.881030
O301	O30	0.526790	0.990280	0.895170
O311	O31	0.319000	0.133830	0.655860
O321	O32	0.449420	0.132330	0.572420
C461	C46	0.779100	0.233100	0.026810
C471	C47	0.894500	0.188100	0.029290
H161	H16	0.897800	0.120400	0.020600
C481	C48	0.007700	0.240900	0.044560
C491	C49	0.002300	0.340300	0.058420
H171	H17	0.077900	0.376300	0.070400
C501	C50	0.886300	0.386000	0.054680
C511	C51	0.775500	0.333100	0.038810
H181	H18	0.696400	0.365100	0.036100
C521	C52	0.655300	0.181800	0.009070
C531	C53	0.130900	0.192900	0.039250
C541	C54	0.879100	0.493600	0.066580
O331	O33	0.563190	0.235160	0.985720
O341	O34	0.653130	0.091980	0.018530
O351	O35	0.131900	0.109840	0.012260
O361	O36	0.230010	0.241310	0.061470
O371	O37	0.961800	0.540610	0.098630
O381	O38	0.768400	0.528950	0.035090
O391	O39	0.358310	0.102970	0.969770
Ni41	Ni4	0.398000	0.232300	0.024110
C551	C55	0.409500	0.364700	0.833160
C561	C56	0.416300	0.353900	0.759820
H191	H19	0.385400	0.296300	0.735800
C571	C57	0.467600	0.426400	0.721470
C581	C58	0.518500	0.509100	0.757470
H201	H20	0.554100	0.558800	0.731700
C591	C59	0.517000	0.518500	0.831190
C601	C60	0.457600	0.447000	0.868220
H211	H21	0.450800	0.455800	0.917800
C611	C61	0.355800	0.282700	0.872980
C621	C62	0.470600	0.414700	0.641240
C631	C63	0.583700	0.600100	0.872680
O401	O40	0.317880	0.304840	0.932400
O411	O41	0.354500	0.199570	0.847310
O421	O42	0.470100	0.328170	0.618970
O431	O43	0.473210	0.490280	0.604830
O441	O44	0.681000	0.633830	0.844140
O451	O45	0.550580	0.632330	0.927580
C641	C64	0.220900	0.733100	0.473190
C651	C65	0.105500	0.688100	0.470710
H221	H22	0.102200	0.620400	0.479400
C661	C66	0.992300	0.740900	0.455440
C671	C67	0.997700	0.840300	0.441580
H231	H23	0.922100	0.876300	0.429600
C681	C68	0.113700	0.886000	0.445320
C691	C69	0.224500	0.833100	0.461190
H241	H24	0.303600	0.865100	0.463900
C701	C70	0.344700	0.681800	0.490930
C711	C71	0.869100	0.692900	0.460750
C721	C72	0.120900	0.993600	0.433420
O461	O46	0.436810	0.735160	0.514280
O471	O47	0.346870	0.591980	0.481470
O481	O48	0.868100	0.609840	0.487740
O491	O49	0.769990	0.741310	0.438530
O501	O50	0.038200	0.040610	0.401370
O511	O51	0.231600	0.028950	0.464910
O521	O52	0.641690	0.602970	0.530230
Ni51	Ni5	0.500000	0.000000	0.000000
Ni61	Ni6	0.500000	0.500000	0.500000
