data_XULDOZ_clean_PM
_symmetry_space_group_name_H-M	'P1'
_cell_length_a	23.362000
_cell_length_b	22.491000
_cell_length_c	22.738000
_cell_angle_alpha	90.000000
_cell_angle_beta	90.000000
_cell_angle_gamma	90.000000
_symmetry_Int_Tables_number 1

loop_
_symmetry_equiv_pos_as_xyz
'x,y,z'

loop_
_atom_site_label
_atom_site_type_symbol
_atom_site_fract_x
_atom_site_fract_y
_atom_site_fract_z
Co11	Co1	0.511480	0.615710	0.110140
Co21	Co2	0.528740	0.646020	0.246450
O11	O1	0.486500	0.617000	0.006700
O21	O2	0.549100	0.559200	0.049000
O31	O3	0.689400	0.456000	0.939800
O41	O4	0.674600	0.426700	0.847800
O51	O5	0.522200	0.579800	0.787300
O61	O6	0.450900	0.576300	0.523300
O71	O7	0.303100	0.422100	0.474100
O81	O8	0.305100	0.417700	0.376400
O91	O9	0.499800	0.596800	0.311800
O101	O10	0.445700	0.532700	0.264100
O111	O11	0.542200	0.577300	0.185600
C11	C1	0.523000	0.580600	0.004000
C21	C2	0.546600	0.559400	0.944000
C31	C3	0.525500	0.574200	0.895700
H11	H1	0.492400	0.597200	0.896400
C41	C4	0.547700	0.558800	0.840700
C51	C5	0.588000	0.520100	0.838100
H21	H2	0.599500	0.504300	0.802200
C61	C6	0.613600	0.502500	0.889300
C71	C7	0.591700	0.520900	0.944000
H31	H3	0.607500	0.507300	0.979000
C81	C8	0.663600	0.457100	0.893100
C91	C9	0.553700	0.585000	0.735000
H41	H4	0.559900	0.546300	0.717300
H51	H5	0.590500	0.603600	0.742300
C101	C10	0.515800	0.625000	0.694600
H61	H6	0.475900	0.621900	0.706100
H71	H7	0.527400	0.666300	0.698000
C111	C11	0.523700	0.603100	0.630200
H81	H8	0.562800	0.610000	0.617500
H91	H9	0.516000	0.560800	0.627800
C121	C12	0.481700	0.637800	0.590100
H101	H10	0.442700	0.631500	0.603700
H111	H11	0.489900	0.680000	0.592300
C131	C13	0.487300	0.616500	0.526100
H121	H12	0.478800	0.648300	0.498600
H131	H13	0.525400	0.601300	0.518200
C141	C14	0.432100	0.551100	0.472700
C151	C15	0.454800	0.566700	0.419000
H141	H14	0.484300	0.594400	0.416900
C161	C16	0.434100	0.541200	0.368900
C171	C17	0.390700	0.499800	0.368700
H151	H15	0.377100	0.484500	0.333400
C181	C18	0.367300	0.481000	0.422000
C191	C19	0.389300	0.508600	0.474400
H161	H16	0.374200	0.497500	0.510600
C201	C20	0.324600	0.439000	0.424900
C211	C21	0.462100	0.557700	0.309300
Co31	Co3	0.511480	0.115710	0.610140
Co41	Co4	0.528740	0.146020	0.746450
O121	O12	0.486500	0.117000	0.506700
O131	O13	0.549100	0.059200	0.549000
O141	O14	0.689400	0.956000	0.439800
O151	O15	0.674600	0.926700	0.347800
O161	O16	0.522200	0.079800	0.287300
O171	O17	0.450900	0.076300	0.023300
O181	O18	0.303100	0.922100	0.974100
O191	O19	0.305100	0.917700	0.876400
O201	O20	0.499800	0.096800	0.811800
O211	O21	0.445700	0.032700	0.764100
O221	O22	0.542200	0.077300	0.685600
C221	C22	0.523000	0.080600	0.504000
C231	C23	0.546600	0.059400	0.444000
C241	C24	0.525500	0.074200	0.395700
H171	H17	0.492400	0.097200	0.396400
C251	C25	0.547700	0.058800	0.340700
C261	C26	0.588000	0.020100	0.338100
H181	H18	0.599500	0.004300	0.302200
C271	C27	0.613600	0.002500	0.389300
C281	C28	0.591700	0.020900	0.444000
H191	H19	0.607500	0.007300	0.479000
C291	C29	0.663600	0.957100	0.393100
C301	C30	0.553700	0.085000	0.235000
H201	H20	0.559900	0.046300	0.217300
H211	H21	0.590500	0.103600	0.242300
C311	C31	0.515800	0.125000	0.194600
H221	H22	0.475900	0.121900	0.206100
H231	H23	0.527400	0.166300	0.198000
C321	C32	0.523700	0.103100	0.130200
H241	H24	0.562800	0.110000	0.117500
H251	H25	0.516000	0.060800	0.127800
C331	C33	0.481700	0.137800	0.090100
H261	H26	0.442700	0.131500	0.103700
H271	H27	0.489900	0.180000	0.092300
C341	C34	0.487300	0.116500	0.026100
H281	H28	0.478800	0.148300	0.998600
H291	H29	0.525400	0.101300	0.018200
C351	C35	0.432100	0.051100	0.972700
C361	C36	0.454800	0.066700	0.919000
H301	H30	0.484300	0.094400	0.916900
C371	C37	0.434100	0.041200	0.868900
C381	C38	0.390700	0.999800	0.868700
H311	H31	0.377100	0.984500	0.833400
C391	C39	0.367300	0.981000	0.922000
C401	C40	0.389300	0.008600	0.974400
H321	H32	0.374200	0.997500	0.010600
C411	C41	0.324600	0.939000	0.924900
C421	C42	0.462100	0.057700	0.809300
Co51	Co5	0.011480	0.615710	0.610140
Co61	Co6	0.028740	0.646020	0.746450
O231	O23	0.986500	0.617000	0.506700
O241	O24	0.049100	0.559200	0.549000
O251	O25	0.189400	0.456000	0.439800
O261	O26	0.174600	0.426700	0.347800
O271	O27	0.022200	0.579800	0.287300
O281	O28	0.950900	0.576300	0.023300
O291	O29	0.803100	0.422100	0.974100
O301	O30	0.805100	0.417700	0.876400
O311	O31	0.999800	0.596800	0.811800
O321	O32	0.945700	0.532700	0.764100
O331	O33	0.042200	0.577300	0.685600
C431	C43	0.023000	0.580600	0.504000
C441	C44	0.046600	0.559400	0.444000
C451	C45	0.025500	0.574200	0.395700
H331	H33	0.992400	0.597200	0.396400
C461	C46	0.047700	0.558800	0.340700
C471	C47	0.088000	0.520100	0.338100
H341	H34	0.099500	0.504300	0.302200
C481	C48	0.113600	0.502500	0.389300
C491	C49	0.091700	0.520900	0.444000
H351	H35	0.107500	0.507300	0.479000
C501	C50	0.163600	0.457100	0.393100
C511	C51	0.053700	0.585000	0.235000
H361	H36	0.059900	0.546300	0.217300
H371	H37	0.090500	0.603600	0.242300
C521	C52	0.015800	0.625000	0.194600
H381	H38	0.975900	0.621900	0.206100
H391	H39	0.027400	0.666300	0.198000
C531	C53	0.023700	0.603100	0.130200
H401	H40	0.062800	0.610000	0.117500
H411	H41	0.016000	0.560800	0.127800
C541	C54	0.981700	0.637800	0.090100
H421	H42	0.942700	0.631500	0.103700
H431	H43	0.989900	0.680000	0.092300
C551	C55	0.987300	0.616500	0.026100
H441	H44	0.978800	0.648300	0.998600
H451	H45	0.025400	0.601300	0.018200
C561	C56	0.932100	0.551100	0.972700
C571	C57	0.954800	0.566700	0.919000
H461	H46	0.984300	0.594400	0.916900
C581	C58	0.934100	0.541200	0.868900
C591	C59	0.890700	0.499800	0.868700
H471	H47	0.877100	0.484500	0.833400
C601	C60	0.867300	0.481000	0.922000
C611	C61	0.889300	0.508600	0.974400
H481	H48	0.874200	0.497500	0.010600
C621	C62	0.824600	0.439000	0.924900
C631	C63	0.962100	0.557700	0.809300
Co71	Co7	0.011480	0.115710	0.110140
Co81	Co8	0.028740	0.146020	0.246450
O341	O34	0.986500	0.117000	0.006700
O351	O35	0.049100	0.059200	0.049000
O361	O36	0.189400	0.956000	0.939800
O371	O37	0.174600	0.926700	0.847800
O381	O38	0.022200	0.079800	0.787300
O391	O39	0.950900	0.076300	0.523300
O401	O40	0.803100	0.922100	0.474100
O411	O41	0.805100	0.917700	0.376400
O421	O42	0.999800	0.096800	0.311800
O431	O43	0.945700	0.032700	0.264100
O441	O44	0.042200	0.077300	0.185600
C641	C64	0.023000	0.080600	0.004000
C651	C65	0.046600	0.059400	0.944000
C661	C66	0.025500	0.074200	0.895700
H491	H49	0.992400	0.097200	0.896400
C671	C67	0.047700	0.058800	0.840700
C681	C68	0.088000	0.020100	0.838100
H501	H50	0.099500	0.004300	0.802200
C691	C69	0.113600	0.002500	0.889300
C701	C70	0.091700	0.020900	0.944000
H511	H51	0.107500	0.007300	0.979000
C711	C71	0.163600	0.957100	0.893100
C721	C72	0.053700	0.085000	0.735000
H521	H52	0.059900	0.046300	0.717300
H531	H53	0.090500	0.103600	0.742300
C731	C73	0.015800	0.125000	0.694600
H541	H54	0.975900	0.121900	0.706100
H551	H55	0.027400	0.166300	0.698000
C741	C74	0.023700	0.103100	0.630200
H561	H56	0.062800	0.110000	0.617500
H571	H57	0.016000	0.060800	0.627800
C751	C75	0.981700	0.137800	0.590100
H581	H58	0.942700	0.131500	0.603700
H591	H59	0.989900	0.180000	0.592300
C761	C76	0.987300	0.116500	0.526100
H601	H60	0.978800	0.148300	0.498600
H611	H61	0.025400	0.101300	0.518200
C771	C77	0.932100	0.051100	0.472700
C781	C78	0.954800	0.066700	0.419000
H621	H62	0.984300	0.094400	0.416900
C791	C79	0.934100	0.041200	0.368900
C801	C80	0.890700	0.999800	0.368700
H631	H63	0.877100	0.984500	0.333400
C811	C81	0.867300	0.981000	0.422000
C821	C82	0.889300	0.008600	0.474400
H641	H64	0.874200	0.997500	0.510600
C831	C83	0.824600	0.939000	0.424900
C841	C84	0.962100	0.057700	0.309300
Co91	Co9	0.488520	0.384290	0.110140
Co101	Co10	0.471260	0.353980	0.246450
O451	O45	0.513500	0.383000	0.006700
O461	O46	0.450900	0.440800	0.049000
O471	O47	0.310600	0.544000	0.939800
O481	O48	0.325400	0.573300	0.847800
O491	O49	0.477800	0.420200	0.787300
O501	O50	0.549100	0.423700	0.523300
O511	O51	0.696900	0.577900	0.474100
O521	O52	0.694900	0.582300	0.376400
O531	O53	0.500200	0.403200	0.311800
O541	O54	0.554300	0.467300	0.264100
O551	O55	0.457800	0.422700	0.185600
C851	C85	0.477000	0.419400	0.004000
C861	C86	0.453400	0.440600	0.944000
C871	C87	0.474500	0.425800	0.895700
H651	H65	0.507600	0.402800	0.896400
C881	C88	0.452300	0.441200	0.840700
C891	C89	0.412000	0.479900	0.838100
H661	H66	0.400500	0.495700	0.802200
C901	C90	0.386400	0.497500	0.889300
C911	C91	0.408300	0.479100	0.944000
H671	H67	0.392500	0.492700	0.979000
C921	C92	0.336400	0.542900	0.893100
C931	C93	0.446300	0.415000	0.735000
H681	H68	0.440100	0.453700	0.717300
H691	H69	0.409500	0.396400	0.742300
C941	C94	0.484200	0.375000	0.694600
H701	H70	0.524100	0.378100	0.706100
H711	H71	0.472600	0.333700	0.698000
C951	C95	0.476300	0.396900	0.630200
H721	H72	0.437200	0.390000	0.617500
H731	H73	0.484000	0.439200	0.627800
C961	C96	0.518300	0.362200	0.590100
H741	H74	0.557300	0.368500	0.603700
H751	H75	0.510100	0.320000	0.592300
C971	C97	0.512700	0.383500	0.526100
H761	H76	0.521200	0.351700	0.498600
H771	H77	0.474600	0.398700	0.518200
C981	C98	0.567900	0.448900	0.472700
C991	C99	0.545200	0.433300	0.419000
H781	H78	0.515700	0.405600	0.416900
C1001	C100	0.565900	0.458800	0.368900
C1011	C101	0.609300	0.500200	0.368700
H791	H79	0.622900	0.515500	0.333400
C1021	C102	0.632700	0.519000	0.422000
C1031	C103	0.610700	0.491400	0.474400
H801	H80	0.625800	0.502500	0.510600
C1041	C104	0.675400	0.561000	0.424900
C1051	C105	0.537900	0.442300	0.309300
Co111	Co11	0.488520	0.884290	0.610140
Co121	Co12	0.471260	0.853980	0.746450
O561	O56	0.513500	0.883000	0.506700
O571	O57	0.450900	0.940800	0.549000
O581	O58	0.310600	0.044000	0.439800
O591	O59	0.325400	0.073300	0.347800
O601	O60	0.477800	0.920200	0.287300
O611	O61	0.549100	0.923700	0.023300
O621	O62	0.696900	0.077900	0.974100
O631	O63	0.694900	0.082300	0.876400
O641	O64	0.500200	0.903200	0.811800
O651	O65	0.554300	0.967300	0.764100
O661	O66	0.457800	0.922700	0.685600
C1061	C106	0.477000	0.919400	0.504000
C1071	C107	0.453400	0.940600	0.444000
C1081	C108	0.474500	0.925800	0.395700
H811	H81	0.507600	0.902800	0.396400
C1091	C109	0.452300	0.941200	0.340700
C1101	C110	0.412000	0.979900	0.338100
H821	H82	0.400500	0.995700	0.302200
C1111	C111	0.386400	0.997500	0.389300
C1121	C112	0.408300	0.979100	0.444000
H831	H83	0.392500	0.992700	0.479000
C1131	C113	0.336400	0.042900	0.393100
C1141	C114	0.446300	0.915000	0.235000
H841	H84	0.440100	0.953700	0.217300
H851	H85	0.409500	0.896400	0.242300
C1151	C115	0.484200	0.875000	0.194600
H861	H86	0.524100	0.878100	0.206100
H871	H87	0.472600	0.833700	0.198000
C1161	C116	0.476300	0.896900	0.130200
H881	H88	0.437200	0.890000	0.117500
H891	H89	0.484000	0.939200	0.127800
C1171	C117	0.518300	0.862200	0.090100
H901	H90	0.557300	0.868500	0.103700
H911	H91	0.510100	0.820000	0.092300
C1181	C118	0.512700	0.883500	0.026100
H921	H92	0.521200	0.851700	0.998600
H931	H93	0.474600	0.898700	0.018200
C1191	C119	0.567900	0.948900	0.972700
C1201	C120	0.545200	0.933300	0.919000
H941	H94	0.515700	0.905600	0.916900
C1211	C121	0.565900	0.958800	0.868900
C1221	C122	0.609300	0.000200	0.868700
H951	H95	0.622900	0.015500	0.833400
C1231	C123	0.632700	0.019000	0.922000
C1241	C124	0.610700	0.991400	0.974400
H961	H96	0.625800	0.002500	0.010600
C1251	C125	0.675400	0.061000	0.924900
C1261	C126	0.537900	0.942300	0.809300
Co131	Co13	0.988520	0.384290	0.610140
Co141	Co14	0.971260	0.353980	0.746450
O671	O67	0.013500	0.383000	0.506700
O681	O68	0.950900	0.440800	0.549000
O691	O69	0.810600	0.544000	0.439800
O701	O70	0.825400	0.573300	0.347800
O711	O71	0.977800	0.420200	0.287300
O721	O72	0.049100	0.423700	0.023300
O731	O73	0.196900	0.577900	0.974100
O741	O74	0.194900	0.582300	0.876400
O751	O75	0.000200	0.403200	0.811800
O761	O76	0.054300	0.467300	0.764100
O771	O77	0.957800	0.422700	0.685600
C1271	C127	0.977000	0.419400	0.504000
C1281	C128	0.953400	0.440600	0.444000
C1291	C129	0.974500	0.425800	0.395700
H971	H97	0.007600	0.402800	0.396400
C1301	C130	0.952300	0.441200	0.340700
C1311	C131	0.912000	0.479900	0.338100
H981	H98	0.900500	0.495700	0.302200
C1321	C132	0.886400	0.497500	0.389300
C1331	C133	0.908300	0.479100	0.444000
H991	H99	0.892500	0.492700	0.479000
C1341	C134	0.836400	0.542900	0.393100
C1351	C135	0.946300	0.415000	0.235000
H1001	H100	0.940100	0.453700	0.217300
H1011	H101	0.909500	0.396400	0.242300
C1361	C136	0.984200	0.375000	0.194600
H1021	H102	0.024100	0.378100	0.206100
H1031	H103	0.972600	0.333700	0.198000
C1371	C137	0.976300	0.396900	0.130200
H1041	H104	0.937200	0.390000	0.117500
H1051	H105	0.984000	0.439200	0.127800
C1381	C138	0.018300	0.362200	0.090100
H1061	H106	0.057300	0.368500	0.103700
H1071	H107	0.010100	0.320000	0.092300
C1391	C139	0.012700	0.383500	0.026100
H1081	H108	0.021200	0.351700	0.998600
H1091	H109	0.974600	0.398700	0.018200
C1401	C140	0.067900	0.448900	0.972700
C1411	C141	0.045200	0.433300	0.919000
H1101	H110	0.015700	0.405600	0.916900
C1421	C142	0.065900	0.458800	0.868900
C1431	C143	0.109300	0.500200	0.868700
H1111	H111	0.122900	0.515500	0.833400
C1441	C144	0.132700	0.519000	0.922000
C1451	C145	0.110700	0.491400	0.974400
H1121	H112	0.125800	0.502500	0.010600
C1461	C146	0.175400	0.561000	0.924900
C1471	C147	0.037900	0.442300	0.809300
Co151	Co15	0.988520	0.884290	0.110140
Co161	Co16	0.971260	0.853980	0.246450
O781	O78	0.013500	0.883000	0.006700
O791	O79	0.950900	0.940800	0.049000
O801	O80	0.810600	0.044000	0.939800
O811	O81	0.825400	0.073300	0.847800
O821	O82	0.977800	0.920200	0.787300
O831	O83	0.049100	0.923700	0.523300
O841	O84	0.196900	0.077900	0.474100
O851	O85	0.194900	0.082300	0.376400
O861	O86	0.000200	0.903200	0.311800
O871	O87	0.054300	0.967300	0.264100
O881	O88	0.957800	0.922700	0.185600
C1481	C148	0.977000	0.919400	0.004000
C1491	C149	0.953400	0.940600	0.944000
C1501	C150	0.974500	0.925800	0.895700
H1131	H113	0.007600	0.902800	0.896400
C1511	C151	0.952300	0.941200	0.840700
C1521	C152	0.912000	0.979900	0.838100
H1141	H114	0.900500	0.995700	0.802200
C1531	C153	0.886400	0.997500	0.889300
C1541	C154	0.908300	0.979100	0.944000
H1151	H115	0.892500	0.992700	0.979000
C1551	C155	0.836400	0.042900	0.893100
C1561	C156	0.946300	0.915000	0.735000
H1161	H116	0.940100	0.953700	0.717300
H1171	H117	0.909500	0.896400	0.742300
C1571	C157	0.984200	0.875000	0.694600
H1181	H118	0.024100	0.878100	0.706100
H1191	H119	0.972600	0.833700	0.698000
C1581	C158	0.976300	0.896900	0.630200
H1201	H120	0.937200	0.890000	0.617500
H1211	H121	0.984000	0.939200	0.627800
C1591	C159	0.018300	0.862200	0.590100
H1221	H122	0.057300	0.868500	0.603700
H1231	H123	0.010100	0.820000	0.592300
C1601	C160	0.012700	0.883500	0.526100
H1241	H124	0.021200	0.851700	0.498600
H1251	H125	0.974600	0.898700	0.518200
C1611	C161	0.067900	0.948900	0.472700
C1621	C162	0.045200	0.933300	0.419000
H1261	H126	0.015700	0.905600	0.416900
C1631	C163	0.065900	0.958800	0.368900
C1641	C164	0.109300	0.000200	0.368700
H1271	H127	0.122900	0.015500	0.333400
C1651	C165	0.132700	0.019000	0.422000
C1661	C166	0.110700	0.991400	0.474400
H1281	H128	0.125800	0.002500	0.510600
C1671	C167	0.175400	0.061000	0.424900
C1681	C168	0.037900	0.942300	0.309300
Co171	Co17	0.761480	0.634290	0.360140
Co181	Co18	0.778740	0.603980	0.496450
O891	O89	0.736500	0.633000	0.256700
O901	O90	0.799100	0.690800	0.299000
O911	O91	0.939400	0.794000	0.189800
O921	O92	0.924600	0.823300	0.097800
O931	O93	0.772200	0.670200	0.037300
O941	O94	0.700900	0.673700	0.773300
O951	O95	0.553100	0.827900	0.724100
O961	O96	0.555100	0.832300	0.626400
O971	O97	0.749800	0.653200	0.561800
O981	O98	0.695700	0.717300	0.514100
O991	O99	0.792200	0.672700	0.435600
C1691	C169	0.773000	0.669400	0.254000
C1701	C170	0.796600	0.690600	0.194000
C1711	C171	0.775500	0.675800	0.145700
H1291	H129	0.742400	0.652800	0.146400
C1721	C172	0.797700	0.691200	0.090700
C1731	C173	0.838000	0.729900	0.088100
H1301	H130	0.849500	0.745700	0.052200
C1741	C174	0.863600	0.747500	0.139300
C1751	C175	0.841700	0.729100	0.194000
H1311	H131	0.857500	0.742700	0.229000
C1761	C176	0.913600	0.792900	0.143100
C1771	C177	0.803700	0.665000	0.985000
H1321	H132	0.809900	0.703700	0.967300
H1331	H133	0.840500	0.646400	0.992300
C1781	C178	0.765800	0.625000	0.944600
H1341	H134	0.725900	0.628100	0.956100
H1351	H135	0.777400	0.583700	0.948000
C1791	C179	0.773700	0.646900	0.880200
H1361	H136	0.812800	0.640000	0.867500
H1371	H137	0.766000	0.689200	0.877800
C1801	C180	0.731700	0.612200	0.840100
H1381	H138	0.692700	0.618500	0.853700
H1391	H139	0.739900	0.570000	0.842300
C1811	C181	0.737300	0.633500	0.776100
H1401	H140	0.728800	0.601700	0.748600
H1411	H141	0.775400	0.648700	0.768200
C1821	C182	0.682100	0.698900	0.722700
C1831	C183	0.704800	0.683300	0.669000
H1421	H142	0.734300	0.655600	0.666900
C1841	C184	0.684100	0.708800	0.618900
C1851	C185	0.640700	0.750200	0.618700
H1431	H143	0.627100	0.765500	0.583400
C1861	C186	0.617300	0.769000	0.672000
C1871	C187	0.639300	0.741400	0.724400
H1441	H144	0.624200	0.752500	0.760600
C1881	C188	0.574600	0.811000	0.674900
C1891	C189	0.712100	0.692300	0.559300
Co191	Co19	0.761480	0.134290	0.860140
Co201	Co20	0.778740	0.103980	0.996450
O1001	O100	0.736500	0.133000	0.756700
O1011	O101	0.799100	0.190800	0.799000
O1021	O102	0.939400	0.294000	0.689800
O1031	O103	0.924600	0.323300	0.597800
O1041	O104	0.772200	0.170200	0.537300
O1051	O105	0.700900	0.173700	0.273300
O1061	O106	0.553100	0.327900	0.224100
O1071	O107	0.555100	0.332300	0.126400
O1081	O108	0.749800	0.153200	0.061800
O1091	O109	0.695700	0.217300	0.014100
O1101	O110	0.792200	0.172700	0.935600
C1901	C190	0.773000	0.169400	0.754000
C1911	C191	0.796600	0.190600	0.694000
C1921	C192	0.775500	0.175800	0.645700
H1451	H145	0.742400	0.152800	0.646400
C1931	C193	0.797700	0.191200	0.590700
C1941	C194	0.838000	0.229900	0.588100
H1461	H146	0.849500	0.245700	0.552200
C1951	C195	0.863600	0.247500	0.639300
C1961	C196	0.841700	0.229100	0.694000
H1471	H147	0.857500	0.242700	0.729000
C1971	C197	0.913600	0.292900	0.643100
C1981	C198	0.803700	0.165000	0.485000
H1481	H148	0.809900	0.203700	0.467300
H1491	H149	0.840500	0.146400	0.492300
C1991	C199	0.765800	0.125000	0.444600
H1501	H150	0.725900	0.128100	0.456100
H1511	H151	0.777400	0.083700	0.448000
C2001	C200	0.773700	0.146900	0.380200
H1521	H152	0.812800	0.140000	0.367500
H1531	H153	0.766000	0.189200	0.377800
C2011	C201	0.731700	0.112200	0.340100
H1541	H154	0.692700	0.118500	0.353700
H1551	H155	0.739900	0.070000	0.342300
C2021	C202	0.737300	0.133500	0.276100
H1561	H156	0.728800	0.101700	0.248600
H1571	H157	0.775400	0.148700	0.268200
C2031	C203	0.682100	0.198900	0.222700
C2041	C204	0.704800	0.183300	0.169000
H1581	H158	0.734300	0.155600	0.166900
C2051	C205	0.684100	0.208800	0.118900
C2061	C206	0.640700	0.250200	0.118700
H1591	H159	0.627100	0.265500	0.083400
C2071	C207	0.617300	0.269000	0.172000
C2081	C208	0.639300	0.241400	0.224400
H1601	H160	0.624200	0.252500	0.260600
C2091	C209	0.574600	0.311000	0.174900
C2101	C210	0.712100	0.192300	0.059300
Co211	Co21	0.261480	0.634290	0.860140
Co221	Co22	0.278740	0.603980	0.996450
O1111	O111	0.236500	0.633000	0.756700
O1121	O112	0.299100	0.690800	0.799000
O1131	O113	0.439400	0.794000	0.689800
O1141	O114	0.424600	0.823300	0.597800
O1151	O115	0.272200	0.670200	0.537300
O1161	O116	0.200900	0.673700	0.273300
O1171	O117	0.053100	0.827900	0.224100
O1181	O118	0.055100	0.832300	0.126400
O1191	O119	0.249800	0.653200	0.061800
O1201	O120	0.195700	0.717300	0.014100
O1211	O121	0.292200	0.672700	0.935600
C2111	C211	0.273000	0.669400	0.754000
C2121	C212	0.296600	0.690600	0.694000
C2131	C213	0.275500	0.675800	0.645700
H1611	H161	0.242400	0.652800	0.646400
C2141	C214	0.297700	0.691200	0.590700
C2151	C215	0.338000	0.729900	0.588100
H1621	H162	0.349500	0.745700	0.552200
C2161	C216	0.363600	0.747500	0.639300
C2171	C217	0.341700	0.729100	0.694000
H1631	H163	0.357500	0.742700	0.729000
C2181	C218	0.413600	0.792900	0.643100
C2191	C219	0.303700	0.665000	0.485000
H1641	H164	0.309900	0.703700	0.467300
H1651	H165	0.340500	0.646400	0.492300
C2201	C220	0.265800	0.625000	0.444600
H1661	H166	0.225900	0.628100	0.456100
H1671	H167	0.277400	0.583700	0.448000
C2211	C221	0.273700	0.646900	0.380200
H1681	H168	0.312800	0.640000	0.367500
H1691	H169	0.266000	0.689200	0.377800
C2221	C222	0.231700	0.612200	0.340100
H1701	H170	0.192700	0.618500	0.353700
H1711	H171	0.239900	0.570000	0.342300
C2231	C223	0.237300	0.633500	0.276100
H1721	H172	0.228800	0.601700	0.248600
H1731	H173	0.275400	0.648700	0.268200
C2241	C224	0.182100	0.698900	0.222700
C2251	C225	0.204800	0.683300	0.169000
H1741	H174	0.234300	0.655600	0.166900
C2261	C226	0.184100	0.708800	0.118900
C2271	C227	0.140700	0.750200	0.118700
H1751	H175	0.127100	0.765500	0.083400
C2281	C228	0.117300	0.769000	0.172000
C2291	C229	0.139300	0.741400	0.224400
H1761	H176	0.124200	0.752500	0.260600
C2301	C230	0.074600	0.811000	0.174900
C2311	C231	0.212100	0.692300	0.059300
Co231	Co23	0.261480	0.134290	0.360140
Co241	Co24	0.278740	0.103980	0.496450
O1221	O122	0.236500	0.133000	0.256700
O1231	O123	0.299100	0.190800	0.299000
O1241	O124	0.439400	0.294000	0.189800
O1251	O125	0.424600	0.323300	0.097800
O1261	O126	0.272200	0.170200	0.037300
O1271	O127	0.200900	0.173700	0.773300
O1281	O128	0.053100	0.327900	0.724100
O1291	O129	0.055100	0.332300	0.626400
O1301	O130	0.249800	0.153200	0.561800
O1311	O131	0.195700	0.217300	0.514100
O1321	O132	0.292200	0.172700	0.435600
C2321	C232	0.273000	0.169400	0.254000
C2331	C233	0.296600	0.190600	0.194000
C2341	C234	0.275500	0.175800	0.145700
H1771	H177	0.242400	0.152800	0.146400
C2351	C235	0.297700	0.191200	0.090700
C2361	C236	0.338000	0.229900	0.088100
H1781	H178	0.349500	0.245700	0.052200
C2371	C237	0.363600	0.247500	0.139300
C2381	C238	0.341700	0.229100	0.194000
H1791	H179	0.357500	0.242700	0.229000
C2391	C239	0.413600	0.292900	0.143100
C2401	C240	0.303700	0.165000	0.985000
H1801	H180	0.309900	0.203700	0.967300
H1811	H181	0.340500	0.146400	0.992300
C2411	C241	0.265800	0.125000	0.944600
H1821	H182	0.225900	0.128100	0.956100
H1831	H183	0.277400	0.083700	0.948000
C2421	C242	0.273700	0.146900	0.880200
H1841	H184	0.312800	0.140000	0.867500
H1851	H185	0.266000	0.189200	0.877800
C2431	C243	0.231700	0.112200	0.840100
H1861	H186	0.192700	0.118500	0.853700
H1871	H187	0.239900	0.070000	0.842300
C2441	C244	0.237300	0.133500	0.776100
H1881	H188	0.228800	0.101700	0.748600
H1891	H189	0.275400	0.148700	0.768200
C2451	C245	0.182100	0.198900	0.722700
C2461	C246	0.204800	0.183300	0.669000
H1901	H190	0.234300	0.155600	0.666900
C2471	C247	0.184100	0.208800	0.618900
C2481	C248	0.140700	0.250200	0.618700
H1911	H191	0.127100	0.265500	0.583400
C2491	C249	0.117300	0.269000	0.672000
C2501	C250	0.139300	0.241400	0.724400
H1921	H192	0.124200	0.252500	0.760600
C2511	C251	0.074600	0.311000	0.674900
C2521	C252	0.212100	0.192300	0.559300
Co251	Co25	0.738520	0.865710	0.360140
Co261	Co26	0.721260	0.896020	0.496450
O1331	O133	0.763500	0.867000	0.256700
O1341	O134	0.700900	0.809200	0.299000
O1351	O135	0.560600	0.706000	0.189800
O1361	O136	0.575400	0.676700	0.097800
O1371	O137	0.727800	0.829800	0.037300
O1381	O138	0.799100	0.826300	0.773300
O1391	O139	0.946900	0.672100	0.724100
O1401	O140	0.944900	0.667700	0.626400
O1411	O141	0.750200	0.846800	0.561800
O1421	O142	0.804300	0.782700	0.514100
O1431	O143	0.707800	0.827300	0.435600
C2531	C253	0.727000	0.830600	0.254000
C2541	C254	0.703400	0.809400	0.194000
C2551	C255	0.724500	0.824200	0.145700
H1931	H193	0.757600	0.847200	0.146400
C2561	C256	0.702300	0.808800	0.090700
C2571	C257	0.662000	0.770100	0.088100
H1941	H194	0.650500	0.754300	0.052200
C2581	C258	0.636400	0.752500	0.139300
C2591	C259	0.658300	0.770900	0.194000
H1951	H195	0.642500	0.757300	0.229000
C2601	C260	0.586400	0.707100	0.143100
C2611	C261	0.696300	0.835000	0.985000
H1961	H196	0.690100	0.796300	0.967300
H1971	H197	0.659500	0.853600	0.992300
C2621	C262	0.734200	0.875000	0.944600
H1981	H198	0.774100	0.871900	0.956100
H1991	H199	0.722600	0.916300	0.948000
C2631	C263	0.726300	0.853100	0.880200
H2001	H200	0.687200	0.860000	0.867500
H2011	H201	0.734000	0.810800	0.877800
C2641	C264	0.768300	0.887800	0.840100
H2021	H202	0.807300	0.881500	0.853700
H2031	H203	0.760100	0.930000	0.842300
C2651	C265	0.762700	0.866500	0.776100
H2041	H204	0.771200	0.898300	0.748600
H2051	H205	0.724600	0.851300	0.768200
C2661	C266	0.817900	0.801100	0.722700
C2671	C267	0.795200	0.816700	0.669000
H2061	H206	0.765700	0.844400	0.666900
C2681	C268	0.815900	0.791200	0.618900
C2691	C269	0.859300	0.749800	0.618700
H2071	H207	0.872900	0.734500	0.583400
C2701	C270	0.882700	0.731000	0.672000
C2711	C271	0.860700	0.758600	0.724400
H2081	H208	0.875800	0.747500	0.760600
C2721	C272	0.925400	0.689000	0.674900
C2731	C273	0.787900	0.807700	0.559300
Co271	Co27	0.738520	0.365710	0.860140
Co281	Co28	0.721260	0.396020	0.996450
O1441	O144	0.763500	0.367000	0.756700
O1451	O145	0.700900	0.309200	0.799000
O1461	O146	0.560600	0.206000	0.689800
O1471	O147	0.575400	0.176700	0.597800
O1481	O148	0.727800	0.329800	0.537300
O1491	O149	0.799100	0.326300	0.273300
O1501	O150	0.946900	0.172100	0.224100
O1511	O151	0.944900	0.167700	0.126400
O1521	O152	0.750200	0.346800	0.061800
O1531	O153	0.804300	0.282700	0.014100
O1541	O154	0.707800	0.327300	0.935600
C2741	C274	0.727000	0.330600	0.754000
C2751	C275	0.703400	0.309400	0.694000
C2761	C276	0.724500	0.324200	0.645700
H2091	H209	0.757600	0.347200	0.646400
C2771	C277	0.702300	0.308800	0.590700
C2781	C278	0.662000	0.270100	0.588100
H2101	H210	0.650500	0.254300	0.552200
C2791	C279	0.636400	0.252500	0.639300
C2801	C280	0.658300	0.270900	0.694000
H2111	H211	0.642500	0.257300	0.729000
C2811	C281	0.586400	0.207100	0.643100
C2821	C282	0.696300	0.335000	0.485000
H2121	H212	0.690100	0.296300	0.467300
H2131	H213	0.659500	0.353600	0.492300
C2831	C283	0.734200	0.375000	0.444600
H2141	H214	0.774100	0.371900	0.456100
H2151	H215	0.722600	0.416300	0.448000
C2841	C284	0.726300	0.353100	0.380200
H2161	H216	0.687200	0.360000	0.367500
H2171	H217	0.734000	0.310800	0.377800
C2851	C285	0.768300	0.387800	0.340100
H2181	H218	0.807300	0.381500	0.353700
H2191	H219	0.760100	0.430000	0.342300
C2861	C286	0.762700	0.366500	0.276100
H2201	H220	0.771200	0.398300	0.248600
H2211	H221	0.724600	0.351300	0.268200
C2871	C287	0.817900	0.301100	0.222700
C2881	C288	0.795200	0.316700	0.169000
H2221	H222	0.765700	0.344400	0.166900
C2891	C289	0.815900	0.291200	0.118900
C2901	C290	0.859300	0.249800	0.118700
H2231	H223	0.872900	0.234500	0.083400
C2911	C291	0.882700	0.231000	0.172000
C2921	C292	0.860700	0.258600	0.224400
H2241	H224	0.875800	0.247500	0.260600
C2931	C293	0.925400	0.189000	0.174900
C2941	C294	0.787900	0.307700	0.059300
Co291	Co29	0.238520	0.865710	0.860140
Co301	Co30	0.221260	0.896020	0.996450
O1551	O155	0.263500	0.867000	0.756700
O1561	O156	0.200900	0.809200	0.799000
O1571	O157	0.060600	0.706000	0.689800
O1581	O158	0.075400	0.676700	0.597800
O1591	O159	0.227800	0.829800	0.537300
O1601	O160	0.299100	0.826300	0.273300
O1611	O161	0.446900	0.672100	0.224100
O1621	O162	0.444900	0.667700	0.126400
O1631	O163	0.250200	0.846800	0.061800
O1641	O164	0.304300	0.782700	0.014100
O1651	O165	0.207800	0.827300	0.935600
C2951	C295	0.227000	0.830600	0.754000
C2961	C296	0.203400	0.809400	0.694000
C2971	C297	0.224500	0.824200	0.645700
H2251	H225	0.257600	0.847200	0.646400
C2981	C298	0.202300	0.808800	0.590700
C2991	C299	0.162000	0.770100	0.588100
H2261	H226	0.150500	0.754300	0.552200
C3001	C300	0.136400	0.752500	0.639300
C3011	C301	0.158300	0.770900	0.694000
H2271	H227	0.142500	0.757300	0.729000
C3021	C302	0.086400	0.707100	0.643100
C3031	C303	0.196300	0.835000	0.485000
H2281	H228	0.190100	0.796300	0.467300
H2291	H229	0.159500	0.853600	0.492300
C3041	C304	0.234200	0.875000	0.444600
H2301	H230	0.274100	0.871900	0.456100
H2311	H231	0.222600	0.916300	0.448000
C3051	C305	0.226300	0.853100	0.380200
H2321	H232	0.187200	0.860000	0.367500
H2331	H233	0.234000	0.810800	0.377800
C3061	C306	0.268300	0.887800	0.340100
H2341	H234	0.307300	0.881500	0.353700
H2351	H235	0.260100	0.930000	0.342300
C3071	C307	0.262700	0.866500	0.276100
H2361	H236	0.271200	0.898300	0.248600
H2371	H237	0.224600	0.851300	0.268200
C3081	C308	0.317900	0.801100	0.222700
C3091	C309	0.295200	0.816700	0.169000
H2381	H238	0.265700	0.844400	0.166900
C3101	C310	0.315900	0.791200	0.118900
C3111	C311	0.359300	0.749800	0.118700
H2391	H239	0.372900	0.734500	0.083400
C3121	C312	0.382700	0.731000	0.172000
C3131	C313	0.360700	0.758600	0.224400
H2401	H240	0.375800	0.747500	0.260600
C3141	C314	0.425400	0.689000	0.174900
C3151	C315	0.287900	0.807700	0.059300
Co311	Co31	0.238520	0.365710	0.360140
Co321	Co32	0.221260	0.396020	0.496450
O1661	O166	0.263500	0.367000	0.256700
O1671	O167	0.200900	0.309200	0.299000
O1681	O168	0.060600	0.206000	0.189800
O1691	O169	0.075400	0.176700	0.097800
O1701	O170	0.227800	0.329800	0.037300
O1711	O171	0.299100	0.326300	0.773300
O1721	O172	0.446900	0.172100	0.724100
O1731	O173	0.444900	0.167700	0.626400
O1741	O174	0.250200	0.346800	0.561800
O1751	O175	0.304300	0.282700	0.514100
O1761	O176	0.207800	0.327300	0.435600
C3161	C316	0.227000	0.330600	0.254000
C3171	C317	0.203400	0.309400	0.194000
C3181	C318	0.224500	0.324200	0.145700
H2411	H241	0.257600	0.347200	0.146400
C3191	C319	0.202300	0.308800	0.090700
C3201	C320	0.162000	0.270100	0.088100
H2421	H242	0.150500	0.254300	0.052200
C3211	C321	0.136400	0.252500	0.139300
C3221	C322	0.158300	0.270900	0.194000
H2431	H243	0.142500	0.257300	0.229000
C3231	C323	0.086400	0.207100	0.143100
C3241	C324	0.196300	0.335000	0.985000
H2441	H244	0.190100	0.296300	0.967300
H2451	H245	0.159500	0.353600	0.992300
C3251	C325	0.234200	0.375000	0.944600
H2461	H246	0.274100	0.371900	0.956100
H2471	H247	0.222600	0.416300	0.948000
C3261	C326	0.226300	0.353100	0.880200
H2481	H248	0.187200	0.360000	0.867500
H2491	H249	0.234000	0.310800	0.877800
C3271	C327	0.268300	0.387800	0.840100
H2501	H250	0.307300	0.381500	0.853700
H2511	H251	0.260100	0.430000	0.842300
C3281	C328	0.262700	0.366500	0.776100
H2521	H252	0.271200	0.398300	0.748600
H2531	H253	0.224600	0.351300	0.768200
C3291	C329	0.317900	0.301100	0.722700
C3301	C330	0.295200	0.316700	0.669000
H2541	H254	0.265700	0.344400	0.666900
C3311	C331	0.315900	0.291200	0.618900
C3321	C332	0.359300	0.249800	0.618700
H2551	H255	0.372900	0.234500	0.583400
C3331	C333	0.382700	0.231000	0.672000
C3341	C334	0.360700	0.258600	0.724400
H2561	H256	0.375800	0.247500	0.760600
C3351	C335	0.425400	0.189000	0.674900
C3361	C336	0.287900	0.307700	0.559300
Co331	Co33	0.500000	0.500000	0.199780
Co341	Co34	0.500000	0.000000	0.699780
Co351	Co35	0.000000	0.500000	0.699780
Co361	Co36	0.000000	0.000000	0.199780
Co371	Co37	0.750000	0.750000	0.449780
Co381	Co38	0.750000	0.250000	0.949780
Co391	Co39	0.250000	0.750000	0.949780
Co401	Co40	0.250000	0.250000	0.449780
