data_XULGUI_clean_PM
_symmetry_space_group_name_H-M	'P1'
_cell_length_a	10.823700
_cell_length_b	12.186200
_cell_length_c	12.249300
_cell_angle_alpha	94.301000
_cell_angle_beta	106.530000
_cell_angle_gamma	101.281000
_symmetry_Int_Tables_number 1

loop_
_symmetry_equiv_pos_as_xyz
'x,y,z'

loop_
_atom_site_label
_atom_site_type_symbol
_atom_site_fract_x
_atom_site_fract_y
_atom_site_fract_z
Dy11	Dy1	0.083250	0.309780	0.498190
C11	C1	0.351500	0.533900	0.565100
H11	H1	0.287300	0.568200	0.523000
C21	C2	0.480700	0.596700	0.608200
H21	H2	0.501000	0.671300	0.595200
C31	C3	0.577800	0.549900	0.669100
H31	H3	0.664900	0.591200	0.697100
C41	C4	0.543600	0.437500	0.689100
C51	C5	0.410600	0.378900	0.643700
C61	C6	0.372200	0.263800	0.663500
C71	C7	0.208600	0.106500	0.643600
H41	H4	0.120000	0.069200	0.615100
C81	C8	0.297800	0.050500	0.706400
H51	H5	0.268700	0.977500	0.720600
C91	C9	0.426600	0.101700	0.746800
H61	H6	0.487400	0.063600	0.787600
C101	C10	0.469800	0.213400	0.727400
C111	C11	0.603000	0.273200	0.767900
H71	H7	0.667500	0.237500	0.806700
C121	C12	0.638100	0.381000	0.751400
H81	H8	0.726300	0.419500	0.781300
C131	C13	0.087700	0.181100	0.305800
C141	C14	0.075700	0.123200	0.191000
C151	C15	0.179000	0.145300	0.144500
H91	H9	0.256300	0.198200	0.184500
C161	C16	0.963600	0.047800	0.132600
H101	H10	0.894800	0.033200	0.164600
C171	C17	0.947900	0.989200	0.021700
C181	C18	0.832300	0.910200	0.959800
H111	H11	0.762100	0.895200	0.990200
C191	C19	0.009700	0.494700	0.676000
C201	C20	0.006200	0.478600	0.797700
C211	C21	0.016200	0.374100	0.835600
H121	H12	0.023600	0.315000	0.787000
C221	C22	0.993800	0.564400	0.865000
H131	H13	0.984400	0.631900	0.836500
C231	C23	0.994900	0.553100	0.981600
C241	C24	0.985000	0.639900	0.054000
H141	H14	0.979100	0.709200	0.028300
C251	C25	0.850200	0.194400	0.529700
C261	C26	0.729800	0.117400	0.535200
C271	C27	0.608500	0.116900	0.462800
H151	H15	0.601700	0.169900	0.411800
C281	C28	0.494000	0.040600	0.461600
C291	C29	0.739400	0.039800	0.612900
H161	H16	0.821800	0.039600	0.663200
C301	C30	0.631900	0.964900	0.617100
H171	H17	0.640700	0.916200	0.672300
N11	N1	0.243600	0.211500	0.622100
N21	N2	0.315000	0.427700	0.580900
O11	O1	0.068900	0.434700	0.634800
O21	O2	0.961200	0.182400	0.586800
O31	O3	0.842600	0.268600	0.461400
O41	O4	0.992100	0.161500	0.346400
O51	O5	0.192100	0.251700	0.362900
O61	O6	0.954400	0.566100	0.627900
Dy21	Dy2	0.916750	0.690220	0.501810
C311	C31	0.648500	0.466100	0.434900
H181	H18	0.712700	0.431800	0.477000
C321	C32	0.519300	0.403300	0.391800
H191	H19	0.499000	0.328700	0.404800
C331	C33	0.422200	0.450100	0.330900
H201	H20	0.335100	0.408800	0.302900
C341	C34	0.456400	0.562500	0.310900
C351	C35	0.589400	0.621100	0.356300
C361	C36	0.627800	0.736200	0.336500
C371	C37	0.791400	0.893500	0.356400
H211	H21	0.880000	0.930800	0.384900
C381	C38	0.702200	0.949500	0.293600
H221	H22	0.731300	0.022500	0.279400
C391	C39	0.573400	0.898300	0.253200
H231	H23	0.512600	0.936400	0.212400
C401	C40	0.530200	0.786600	0.272600
C411	C41	0.397000	0.726800	0.232100
H241	H24	0.332500	0.762500	0.193300
C421	C42	0.361900	0.619000	0.248600
H251	H25	0.273700	0.580500	0.218700
C431	C43	0.912300	0.818900	0.694200
C441	C44	0.924300	0.876800	0.809000
C451	C45	0.821000	0.854700	0.855500
H261	H26	0.743700	0.801800	0.815500
C461	C46	0.036400	0.952200	0.867400
H271	H27	0.105200	0.966800	0.835400
C471	C47	0.052100	0.010800	0.978300
C481	C48	0.167700	0.089800	0.040200
H281	H28	0.237900	0.104800	0.009800
C491	C49	0.990300	0.505300	0.324000
C501	C50	0.993800	0.521400	0.202300
C511	C51	0.983800	0.625900	0.164400
H291	H29	0.976400	0.685000	0.213000
C521	C52	0.006200	0.435600	0.135000
H301	H30	0.015600	0.368100	0.163500
C531	C53	0.005100	0.446900	0.018400
C541	C54	0.015000	0.360100	0.946000
H311	H31	0.020900	0.290800	0.971700
C551	C55	0.149800	0.805600	0.470300
C561	C56	0.270200	0.882600	0.464800
C571	C57	0.391500	0.883100	0.537200
H321	H32	0.398300	0.830100	0.588200
C581	C58	0.506000	0.959400	0.538400
C591	C59	0.260600	0.960200	0.387100
H331	H33	0.178200	0.960400	0.336800
C601	C60	0.368100	0.035100	0.382900
H341	H34	0.359300	0.083800	0.327700
N31	N3	0.756400	0.788500	0.377900
N41	N4	0.685000	0.572300	0.419100
O71	O7	0.931100	0.565300	0.365200
O81	O8	0.038800	0.817600	0.413200
O91	O9	0.157400	0.731400	0.538600
O101	O10	0.007900	0.838500	0.653600
O111	O11	0.807900	0.748300	0.637100
O121	O12	0.045600	0.433900	0.372100
