data_XUMCAK_clean_PM
_symmetry_space_group_name_H-M	'P1'
_cell_length_a	27.246000
_cell_length_b	10.443000
_cell_length_c	9.361000
_cell_angle_alpha	90.000000
_cell_angle_beta	101.743000
_cell_angle_gamma	90.000000
_symmetry_Int_Tables_number 1

loop_
_symmetry_equiv_pos_as_xyz
'x,y,z'

loop_
_atom_site_label
_atom_site_type_symbol
_atom_site_fract_x
_atom_site_fract_y
_atom_site_fract_z
N11	N1	0.146280	0.272400	0.573100
C11	C1	0.149840	0.165100	0.578600
N21	N2	0.646280	0.772400	0.573100
C21	C2	0.649840	0.665100	0.578600
N31	N3	0.853720	0.272400	0.426900
C31	C3	0.850160	0.165100	0.421400
N41	N4	0.353720	0.772400	0.426900
C41	C4	0.350160	0.665100	0.421400
N51	N5	0.853720	0.727600	0.426900
C51	C5	0.850160	0.834900	0.421400
N61	N6	0.353720	0.227600	0.426900
C61	C6	0.350160	0.334900	0.421400
N71	N7	0.146280	0.727600	0.573100
C71	C7	0.149840	0.834900	0.578600
N81	N8	0.646280	0.227600	0.573100
C81	C8	0.649840	0.334900	0.578600
Cd11	Cd1	0.000000	0.000000	0.000000
Cd21	Cd2	0.500000	0.500000	0.000000
Cd31	Cd3	0.140040	0.500000	0.556350
Cu11	Cu1	0.046890	0.500000	0.004840
N91	N9	0.099300	0.500000	0.329900
N101	N10	0.101800	0.500000	0.745800
C91	C9	0.082900	0.500000	0.209800
C101	C10	0.080800	0.500000	0.839100
Cd41	Cd4	0.640040	0.000000	0.556350
Cu21	Cu2	0.546890	0.000000	0.004840
N111	N11	0.599300	0.000000	0.329900
N121	N12	0.601800	0.000000	0.745800
C111	C11	0.582900	0.000000	0.209800
C121	C12	0.580800	0.000000	0.839100
Cd51	Cd5	0.859960	0.500000	0.443650
Cu31	Cu3	0.953110	0.500000	0.995160
N131	N13	0.900700	0.500000	0.670100
N141	N14	0.898200	0.500000	0.254200
C131	C13	0.917100	0.500000	0.790200
C141	C14	0.919200	0.500000	0.160900
Cd61	Cd6	0.359960	0.000000	0.443650
Cu41	Cu4	0.453110	0.000000	0.995160
N151	N15	0.400700	0.000000	0.670100
N161	N16	0.398200	0.000000	0.254200
C151	C15	0.417100	0.000000	0.790200
C161	C16	0.419200	0.000000	0.160900
Cu51	Cu5	0.164890	0.000000	0.445740
Cu61	Cu6	0.148670	0.000000	0.705160
N171	N17	0.277800	0.000000	0.437500
N181	N18	0.241100	0.000000	0.964400
N191	N19	0.076500	0.000000	0.179000
N201	N20	0.050400	0.000000	0.824500
C171	C17	0.235800	0.000000	0.444800
C181	C18	0.208300	0.000000	0.866700
C191	C19	0.111400	0.000000	0.272400
C201	C20	0.085000	0.000000	0.774300
Cu71	Cu7	0.664890	0.500000	0.445740
Cu81	Cu8	0.648670	0.500000	0.705160
N211	N21	0.777800	0.500000	0.437500
N221	N22	0.741100	0.500000	0.964400
N231	N23	0.576500	0.500000	0.179000
N241	N24	0.550400	0.500000	0.824500
C211	C21	0.735800	0.500000	0.444800
C221	C22	0.708300	0.500000	0.866700
C231	C23	0.611400	0.500000	0.272400
C241	C24	0.585000	0.500000	0.774300
Cu91	Cu9	0.835110	0.000000	0.554260
Cu101	Cu10	0.851330	0.000000	0.294840
N251	N25	0.722200	0.000000	0.562500
N261	N26	0.758900	0.000000	0.035600
N271	N27	0.923500	0.000000	0.821000
N281	N28	0.949600	0.000000	0.175500
C251	C25	0.764200	0.000000	0.555200
C261	C26	0.791700	0.000000	0.133300
C271	C27	0.888600	0.000000	0.727600
C281	C28	0.915000	0.000000	0.225700
Cu111	Cu11	0.335110	0.500000	0.554260
Cu121	Cu12	0.351330	0.500000	0.294840
N291	N29	0.222200	0.500000	0.562500
N301	N30	0.258900	0.500000	0.035600
N311	N31	0.423500	0.500000	0.821000
N321	N32	0.449600	0.500000	0.175500
C291	C29	0.264200	0.500000	0.555200
C301	C30	0.291700	0.500000	0.133300
C311	C31	0.388600	0.500000	0.727600
C321	C32	0.415000	0.500000	0.225700
N331	N33	0.000000	0.223200	0.000000
C331	C33	0.000000	0.332500	0.000000
N341	N34	0.500000	0.723200	0.000000
C341	C34	0.500000	0.832500	0.000000
N351	N35	0.000000	0.776800	0.000000
C351	C35	0.000000	0.667500	0.000000
N361	N36	0.500000	0.276800	0.000000
C361	C36	0.500000	0.167500	0.000000
