data_XUMMOJ_clean_PM
_symmetry_space_group_name_H-M	'P1'
_cell_length_a	20.658000
_cell_length_b	20.658000
_cell_length_c	5.611700
_cell_angle_alpha	90.000000
_cell_angle_beta	90.000000
_cell_angle_gamma	90.000000
_symmetry_Int_Tables_number 1

loop_
_symmetry_equiv_pos_as_xyz
'x,y,z'

loop_
_atom_site_label
_atom_site_type_symbol
_atom_site_fract_x
_atom_site_fract_y
_atom_site_fract_z
N11	N1	0.153600	0.225800	0.204300
C11	C1	0.113900	0.250700	0.047800
H11	H1	0.130000	0.280400	0.938300
C21	C2	0.050600	0.235200	0.039000
H21	H2	0.024000	0.253800	0.923900
C31	C3	0.024900	0.191000	0.203000
H31	H3	0.981500	0.179400	0.198600
C41	C4	0.066200	0.165400	0.369000
C51	C5	0.130700	0.183200	0.363800
H41	H4	0.159000	0.165100	0.474000
N21	N2	0.040100	0.124100	0.546500
H51	H5	0.999000	0.126200	0.569800
C61	C6	0.073600	0.081500	0.683200
O11	O1	0.132500	0.075200	0.677100
C71	C7	0.035000	0.039900	0.846800
C81	C8	0.062500	0.018200	0.047000
H61	H6	0.104800	0.030200	0.082500
C91	C9	0.970800	0.021900	0.797000
H71	H7	0.950600	0.036800	0.659500
N31	N3	0.346400	0.274200	0.204300
C101	C10	0.386100	0.249300	0.047800
H81	H8	0.370000	0.219600	0.938300
C111	C11	0.449400	0.264800	0.039000
H91	H9	0.476000	0.246200	0.923900
C121	C12	0.475100	0.309000	0.203000
H101	H10	0.518500	0.320600	0.198600
C131	C13	0.433800	0.334600	0.369000
C141	C14	0.369300	0.316800	0.363800
H111	H11	0.341000	0.334900	0.474000
N41	N4	0.459900	0.375900	0.546500
H121	H12	0.501000	0.373800	0.569800
C151	C15	0.426400	0.418500	0.683200
O21	O2	0.367500	0.424800	0.677100
C161	C16	0.465000	0.460100	0.846800
C171	C17	0.437500	0.481800	0.047000
H131	H13	0.395200	0.469800	0.082500
C181	C18	0.529200	0.478100	0.797000
H141	H14	0.549400	0.463200	0.659500
N51	N5	0.274200	0.153600	0.204300
C191	C19	0.249300	0.113900	0.047800
H151	H15	0.219600	0.130000	0.938300
C201	C20	0.264800	0.050600	0.039000
H161	H16	0.246200	0.024000	0.923900
C211	C21	0.309000	0.024900	0.203000
H171	H17	0.320600	0.981500	0.198600
C221	C22	0.334600	0.066200	0.369000
C231	C23	0.316800	0.130700	0.363800
H181	H18	0.334900	0.159000	0.474000
N61	N6	0.375900	0.040100	0.546500
H191	H19	0.373800	0.999000	0.569800
C241	C24	0.418500	0.073600	0.683200
O31	O3	0.424800	0.132500	0.677100
C251	C25	0.460100	0.035000	0.846800
C261	C26	0.481800	0.062500	0.047000
H201	H20	0.469800	0.104800	0.082500
C271	C27	0.478100	0.970800	0.797000
H211	H21	0.463200	0.950600	0.659500
N71	N7	0.225800	0.346400	0.204300
C281	C28	0.250700	0.386100	0.047800
H221	H22	0.280400	0.370000	0.938300
C291	C29	0.235200	0.449400	0.039000
H231	H23	0.253800	0.476000	0.923900
C301	C30	0.191000	0.475100	0.203000
H241	H24	0.179400	0.518500	0.198600
C311	C31	0.165400	0.433800	0.369000
C321	C32	0.183200	0.369300	0.363800
H251	H25	0.165100	0.341000	0.474000
N81	N8	0.124100	0.459900	0.546500
H261	H26	0.126200	0.501000	0.569800
C331	C33	0.081500	0.426400	0.683200
O41	O4	0.075200	0.367500	0.677100
C341	C34	0.039900	0.465000	0.846800
C351	C35	0.018200	0.437500	0.047000
H271	H27	0.030200	0.395200	0.082500
C361	C36	0.021900	0.529200	0.797000
H281	H28	0.036800	0.549400	0.659500
N91	N9	0.846400	0.774200	0.795700
C371	C37	0.886100	0.749300	0.952200
H291	H29	0.870000	0.719600	0.061700
C381	C38	0.949400	0.764800	0.961000
H301	H30	0.976000	0.746200	0.076100
C391	C39	0.975100	0.809000	0.797000
H311	H31	0.018500	0.820600	0.801400
C401	C40	0.933800	0.834600	0.631000
C411	C41	0.869300	0.816800	0.636200
H321	H32	0.841000	0.834900	0.526000
N101	N10	0.959900	0.875900	0.453500
H331	H33	0.001000	0.873800	0.430200
C421	C42	0.926400	0.918500	0.316800
O51	O5	0.867500	0.924800	0.322900
C431	C43	0.965000	0.960100	0.153200
C441	C44	0.937500	0.981800	0.953000
H341	H34	0.895200	0.969800	0.917500
C451	C45	0.029200	0.978100	0.203000
H351	H35	0.049400	0.963200	0.340500
N111	N11	0.653600	0.725800	0.795700
C461	C46	0.613900	0.750700	0.952200
H361	H36	0.630000	0.780400	0.061700
C471	C47	0.550600	0.735200	0.961000
H371	H37	0.524000	0.753800	0.076100
C481	C48	0.524900	0.691000	0.797000
H381	H38	0.481500	0.679400	0.801400
C491	C49	0.566200	0.665400	0.631000
C501	C50	0.630700	0.683200	0.636200
H391	H39	0.659000	0.665100	0.526000
N121	N12	0.540100	0.624100	0.453500
H401	H40	0.499000	0.626200	0.430200
C511	C51	0.573600	0.581500	0.316800
O61	O6	0.632500	0.575200	0.322900
C521	C52	0.535000	0.539900	0.153200
C531	C53	0.562500	0.518200	0.953000
H411	H41	0.604800	0.530200	0.917500
C541	C54	0.470800	0.521900	0.203000
H421	H42	0.450600	0.536800	0.340500
N131	N13	0.725800	0.846400	0.795700
C551	C55	0.750700	0.886100	0.952200
H431	H43	0.780400	0.870000	0.061700
C561	C56	0.735200	0.949400	0.961000
H441	H44	0.753800	0.976000	0.076100
C571	C57	0.691000	0.975100	0.797000
H451	H45	0.679400	0.018500	0.801400
C581	C58	0.665400	0.933800	0.631000
C591	C59	0.683200	0.869300	0.636200
H461	H46	0.665100	0.841000	0.526000
N141	N14	0.624100	0.959900	0.453500
H471	H47	0.626200	0.001000	0.430200
C601	C60	0.581500	0.926400	0.316800
O71	O7	0.575200	0.867500	0.322900
C611	C61	0.539900	0.965000	0.153200
C621	C62	0.518200	0.937500	0.953000
H481	H48	0.530200	0.895200	0.917500
C631	C63	0.521900	0.029200	0.203000
H491	H49	0.536800	0.049400	0.340500
N151	N15	0.774200	0.653600	0.795700
C641	C64	0.749300	0.613900	0.952200
H501	H50	0.719600	0.630000	0.061700
C651	C65	0.764800	0.550600	0.961000
H511	H51	0.746200	0.524000	0.076100
C661	C66	0.809000	0.524900	0.797000
H521	H52	0.820600	0.481500	0.801400
C671	C67	0.834600	0.566200	0.631000
C681	C68	0.816800	0.630700	0.636200
H531	H53	0.834900	0.659000	0.526000
N161	N16	0.875900	0.540100	0.453500
H541	H54	0.873800	0.499000	0.430200
C691	C69	0.918500	0.573600	0.316800
O81	O8	0.924800	0.632500	0.322900
C701	C70	0.960100	0.535000	0.153200
C711	C71	0.981800	0.562500	0.953000
H551	H55	0.969800	0.604800	0.917500
C721	C72	0.978100	0.470800	0.203000
H561	H56	0.963200	0.450600	0.340500
Cu11	Cu1	0.250000	0.250000	0.210200
Br11	Br1	0.250000	0.250000	0.707600
Cu21	Cu2	0.750000	0.750000	0.789800
Br21	Br2	0.750000	0.750000	0.292400
