data_XUMMUP_clean_PM
_symmetry_space_group_name_H-M	'P1'
_cell_length_a	21.614500
_cell_length_b	21.614500
_cell_length_c	5.167800
_cell_angle_alpha	90.000000
_cell_angle_beta	90.000000
_cell_angle_gamma	90.000000
_symmetry_Int_Tables_number 1

loop_
_symmetry_equiv_pos_as_xyz
'x,y,z'

loop_
_atom_site_label
_atom_site_type_symbol
_atom_site_fract_x
_atom_site_fract_y
_atom_site_fract_z
N11	N1	0.911900	0.963460	0.700300
C11	C1	0.870160	0.984290	0.533800
H11	H1	0.881200	0.015900	0.420900
C21	C2	0.810050	0.960250	0.522000
H21	H2	0.781600	0.975300	0.402600
C31	C3	0.794070	0.913330	0.693500
H31	H3	0.754500	0.896500	0.690500
C41	C4	0.837620	0.891760	0.869100
C51	C5	0.896130	0.919160	0.868800
H41	H4	0.925200	0.906200	0.989900
N21	N2	0.819990	0.843740	0.038000
H51	H5	0.781000	0.838600	0.063700
C61	C6	0.859030	0.804820	0.163900
O11	O1	0.915410	0.810790	0.170800
C71	C7	0.827850	0.751420	0.294100
C81	C8	0.854790	0.724100	0.509200
H61	H6	0.890600	0.740900	0.580100
N31	N3	0.088100	0.036540	0.700300
C91	C9	0.129840	0.015710	0.533800
H71	H7	0.118800	0.984100	0.420900
C101	C10	0.189950	0.039750	0.522000
H81	H8	0.218400	0.024700	0.402600
C111	C11	0.205930	0.086670	0.693500
H91	H9	0.245500	0.103500	0.690500
C121	C12	0.162380	0.108240	0.869100
C131	C13	0.103870	0.080840	0.868800
H101	H10	0.074800	0.093800	0.989900
N41	N4	0.180010	0.156260	0.038000
H111	H11	0.219000	0.161400	0.063700
C141	C14	0.140970	0.195180	0.163900
O21	O2	0.084590	0.189210	0.170800
C151	C15	0.172150	0.248580	0.294100
C161	C16	0.145210	0.275900	0.509200
H121	H12	0.109400	0.259100	0.580100
N51	N5	0.036540	0.911900	0.700300
C171	C17	0.015710	0.870160	0.533800
H131	H13	0.984100	0.881200	0.420900
C181	C18	0.039750	0.810050	0.522000
H141	H14	0.024700	0.781600	0.402600
C191	C19	0.086670	0.794070	0.693500
H151	H15	0.103500	0.754500	0.690500
C201	C20	0.108240	0.837620	0.869100
C211	C21	0.080840	0.896130	0.868800
H161	H16	0.093800	0.925200	0.989900
N61	N6	0.156260	0.819990	0.038000
H171	H17	0.161400	0.781000	0.063700
C221	C22	0.195180	0.859030	0.163900
O31	O3	0.189210	0.915410	0.170800
C231	C23	0.248580	0.827850	0.294100
C241	C24	0.275900	0.854790	0.509200
H181	H18	0.259100	0.890600	0.580100
N71	N7	0.963460	0.088100	0.700300
C251	C25	0.984290	0.129840	0.533800
H191	H19	0.015900	0.118800	0.420900
C261	C26	0.960250	0.189950	0.522000
H201	H20	0.975300	0.218400	0.402600
C271	C27	0.913330	0.205930	0.693500
H211	H21	0.896500	0.245500	0.690500
C281	C28	0.891760	0.162380	0.869100
C291	C29	0.919160	0.103870	0.868800
H221	H22	0.906200	0.074800	0.989900
N81	N8	0.843740	0.180010	0.038000
H231	H23	0.838600	0.219000	0.063700
C301	C30	0.804820	0.140970	0.163900
O41	O4	0.810790	0.084590	0.170800
C311	C31	0.751420	0.172150	0.294100
C321	C32	0.724100	0.145210	0.509200
H241	H24	0.740900	0.109400	0.580100
N91	N9	0.411900	0.536540	0.700300
C331	C33	0.370160	0.515710	0.533800
H251	H25	0.381200	0.484100	0.420900
C341	C34	0.310050	0.539750	0.522000
H261	H26	0.281600	0.524700	0.402600
C351	C35	0.294070	0.586670	0.693500
H271	H27	0.254500	0.603500	0.690500
C361	C36	0.337620	0.608240	0.869100
C371	C37	0.396130	0.580840	0.868800
H281	H28	0.425200	0.593800	0.989900
N101	N10	0.319990	0.656260	0.038000
H291	H29	0.281000	0.661400	0.063700
C381	C38	0.359030	0.695180	0.163900
O51	O5	0.415410	0.689210	0.170800
C391	C39	0.327850	0.748580	0.294100
C401	C40	0.354790	0.775900	0.509200
H301	H30	0.390600	0.759100	0.580100
N111	N11	0.588100	0.463460	0.700300
C411	C41	0.629840	0.484290	0.533800
H311	H31	0.618800	0.515900	0.420900
C421	C42	0.689950	0.460250	0.522000
H321	H32	0.718400	0.475300	0.402600
C431	C43	0.705930	0.413330	0.693500
H331	H33	0.745500	0.396500	0.690500
C441	C44	0.662380	0.391760	0.869100
C451	C45	0.603870	0.419160	0.868800
H341	H34	0.574800	0.406200	0.989900
N121	N12	0.680010	0.343740	0.038000
H351	H35	0.719000	0.338600	0.063700
C461	C46	0.640970	0.304820	0.163900
O61	O6	0.584590	0.310790	0.170800
C471	C47	0.672150	0.251420	0.294100
C481	C48	0.645210	0.224100	0.509200
H361	H36	0.609400	0.240900	0.580100
N131	N13	0.536540	0.588100	0.700300
C491	C49	0.515710	0.629840	0.533800
H371	H37	0.484100	0.618800	0.420900
C501	C50	0.539750	0.689950	0.522000
H381	H38	0.524700	0.718400	0.402600
C511	C51	0.586670	0.705930	0.693500
H391	H39	0.603500	0.745500	0.690500
C521	C52	0.608240	0.662380	0.869100
C531	C53	0.580840	0.603870	0.868800
H401	H40	0.593800	0.574800	0.989900
N141	N14	0.656260	0.680010	0.038000
H411	H41	0.661400	0.719000	0.063700
C541	C54	0.695180	0.640970	0.163900
O71	O7	0.689210	0.584590	0.170800
C551	C55	0.748580	0.672150	0.294100
C561	C56	0.775900	0.645210	0.509200
H421	H42	0.759100	0.609400	0.580100
N151	N15	0.463460	0.411900	0.700300
C571	C57	0.484290	0.370160	0.533800
H431	H43	0.515900	0.381200	0.420900
C581	C58	0.460250	0.310050	0.522000
H441	H44	0.475300	0.281600	0.402600
C591	C59	0.413330	0.294070	0.693500
H451	H45	0.396500	0.254500	0.690500
C601	C60	0.391760	0.337620	0.869100
C611	C61	0.419160	0.396130	0.868800
H461	H46	0.406200	0.425200	0.989900
N161	N16	0.343740	0.319990	0.038000
H471	H47	0.338600	0.281000	0.063700
C621	C62	0.304820	0.359030	0.163900
O81	O8	0.310790	0.415410	0.170800
C631	C63	0.251420	0.327850	0.294100
C641	C64	0.224100	0.354790	0.509200
H481	H48	0.240900	0.390600	0.580100
Cu11	Cu1	0.000000	0.000000	0.704300
Cl11	Cl1	0.000000	0.000000	0.201600
Cu21	Cu2	0.500000	0.500000	0.704300
Cl21	Cl2	0.500000	0.500000	0.201600
C651	C65	0.775410	0.724590	0.186600
H491	H49	0.757900	0.742100	0.039500
C661	C66	0.828500	0.671500	0.619600
H501	H50	0.845900	0.654100	0.766800
C671	C67	0.224590	0.275410	0.186600
H511	H51	0.242100	0.257900	0.039500
C681	C68	0.171500	0.328500	0.619600
H521	H52	0.154100	0.345900	0.766800
C691	C69	0.275410	0.775410	0.186600
H531	H53	0.257900	0.757900	0.039500
C701	C70	0.328500	0.828500	0.619600
H541	H54	0.345900	0.845900	0.766800
C711	C71	0.724590	0.224590	0.186600
H551	H55	0.742100	0.242100	0.039500
C721	C72	0.671500	0.171500	0.619600
H561	H56	0.654100	0.154100	0.766800
