data_XUNGOD_clean_PM
_symmetry_space_group_name_H-M	'P1'
_cell_length_a	5.396800
_cell_length_b	11.488600
_cell_length_c	13.423300
_cell_angle_alpha	90.670000
_cell_angle_beta	94.900000
_cell_angle_gamma	91.238000
_symmetry_Int_Tables_number 1

loop_
_symmetry_equiv_pos_as_xyz
'x,y,z'

loop_
_atom_site_label
_atom_site_type_symbol
_atom_site_fract_x
_atom_site_fract_y
_atom_site_fract_z
Li11	Li1	0.687300	0.987900	0.935000
Li21	Li2	0.305700	0.486100	0.559700
Li31	Li3	0.312700	0.012100	0.065000
Li41	Li4	0.694300	0.513900	0.440300
H11	H1	0.067900	0.184500	0.655000
H21	H2	0.995000	0.045200	0.768800
H31	H3	0.413100	0.204300	0.846400
H41	H4	0.459800	0.345800	0.729700
H51	H5	0.557300	0.733400	0.867800
H61	H6	0.595500	0.592900	0.748600
H71	H7	0.950400	0.664500	0.614200
H81	H8	0.884000	0.800200	0.734100
H91	H9	0.932100	0.815500	0.345000
H101	H10	0.005000	0.954800	0.231200
H111	H11	0.586900	0.795700	0.153600
H121	H12	0.540200	0.654200	0.270300
H131	H13	0.442700	0.266600	0.132200
H141	H14	0.404500	0.407100	0.251400
H151	H15	0.049600	0.335500	0.385800
H161	H16	0.116000	0.199800	0.265900
C11	C1	0.824600	0.373900	0.602500
C21	C2	0.772800	0.282400	0.679200
C31	C3	0.931900	0.190300	0.692700
C41	C4	0.887900	0.107500	0.762200
C51	C5	0.546300	0.199900	0.807000
C61	C6	0.573700	0.286200	0.737300
C71	C7	0.165800	0.870600	0.897000
C81	C8	0.212700	0.782600	0.815800
C91	C9	0.429300	0.719500	0.817900
C101	C10	0.451500	0.636200	0.745100
C111	C11	0.072100	0.677100	0.666800
C121	C12	0.031900	0.759700	0.738000
C131	C13	0.175400	0.626100	0.397500
C141	C14	0.227200	0.717600	0.320800
C151	C15	0.068100	0.809700	0.307300
C161	C16	0.112100	0.892500	0.237800
C171	C17	0.453700	0.800100	0.193000
C181	C18	0.426300	0.713800	0.262700
C191	C19	0.834200	0.129400	0.103000
C201	C20	0.787300	0.217400	0.184200
C211	C21	0.570700	0.280500	0.182100
C221	C22	0.548500	0.363800	0.254900
C231	C23	0.927900	0.322900	0.333200
C241	C24	0.968100	0.240300	0.262000
N11	N1	0.699900	0.110900	0.821100
N21	N2	0.278500	0.613400	0.669200
N31	N3	0.300100	0.889100	0.178900
N41	N4	0.721500	0.386600	0.330800
O11	O1	0.038200	0.379800	0.575300
O21	O2	0.646300	0.437500	0.571100
O31	O3	0.946000	0.887600	0.911500
O41	O4	0.353300	0.920300	0.942900
O51	O5	0.961800	0.620200	0.424700
O61	O6	0.353700	0.562500	0.428900
O71	O7	0.054000	0.112400	0.088500
O81	O8	0.646700	0.079700	0.057100
