data_XUNRUV_clean_PM
_symmetry_space_group_name_H-M	'P1'
_cell_length_a	10.868100
_cell_length_b	9.835800
_cell_length_c	14.605900
_cell_angle_alpha	90.000000
_cell_angle_beta	94.096000
_cell_angle_gamma	90.000000
_symmetry_Int_Tables_number 1

loop_
_symmetry_equiv_pos_as_xyz
'x,y,z'

loop_
_atom_site_label
_atom_site_type_symbol
_atom_site_fract_x
_atom_site_fract_y
_atom_site_fract_z
C11	C1	0.278500	0.324500	0.176030
H11	H1	0.211900	0.339600	0.131400
C21	C2	0.479740	0.355600	0.225030
H21	H2	0.557800	0.395400	0.216800
C31	C3	0.257400	0.244700	0.251690
H31	H3	0.177800	0.208300	0.259100
C41	C4	0.468050	0.274200	0.301500
H41	H4	0.537400	0.256500	0.343200
C51	C5	0.354210	0.219100	0.316200
C61	C6	0.332910	0.137000	0.401240
C71	C7	0.028200	0.595900	0.747970
H51	H5	0.962900	0.531400	0.744100
C81	C8	0.190500	0.694300	0.829400
H61	H6	0.240800	0.703300	0.885000
C91	C9	0.216300	0.776100	0.755910
H71	H7	0.284300	0.837000	0.760800
C101	C10	0.141380	0.767600	0.675200
C111	C11	0.044400	0.676400	0.671960
H81	H8	0.989800	0.669000	0.618400
C121	C12	0.167560	0.852900	0.592420
O11	O1	0.226760	0.136820	0.428410
O21	O2	0.424600	0.076300	0.439540
O31	O3	0.276570	0.859060	0.572420
O41	O4	0.076660	0.910000	0.550230
Li11	Li1	0.089800	0.021200	0.439500
Li21	Li2	0.404700	0.984200	0.555900
N11	N1	0.387020	0.381100	0.162530
N21	N2	0.098950	0.603800	0.826440
C131	C13	0.721500	0.824500	0.323970
H91	H9	0.788100	0.839600	0.368600
C141	C14	0.520260	0.855600	0.274970
H101	H10	0.442200	0.895400	0.283200
C151	C15	0.742600	0.744700	0.248310
H111	H11	0.822200	0.708300	0.240900
C161	C16	0.531950	0.774200	0.198500
H121	H12	0.462600	0.756500	0.156800
C171	C17	0.645790	0.719100	0.183800
C181	C18	0.667090	0.637000	0.098760
C191	C19	0.971800	0.095900	0.752030
H131	H13	0.037100	0.031400	0.755900
C201	C20	0.809500	0.194300	0.670600
H141	H14	0.759200	0.203300	0.615000
C211	C21	0.783700	0.276100	0.744090
H151	H15	0.715700	0.337000	0.739200
C221	C22	0.858620	0.267600	0.824800
C231	C23	0.955600	0.176400	0.828040
H161	H16	0.010200	0.169000	0.881600
C241	C24	0.832440	0.352900	0.907580
O51	O5	0.773240	0.636820	0.071590
O61	O6	0.575400	0.576300	0.060460
O71	O7	0.723430	0.359060	0.927580
O81	O8	0.923340	0.410000	0.949770
Li31	Li3	0.910200	0.521200	0.060500
Li41	Li4	0.595300	0.484200	0.944100
N31	N3	0.612980	0.881100	0.337470
N41	N4	0.901050	0.103800	0.673560
C251	C25	0.721500	0.675500	0.823970
H171	H17	0.788100	0.660400	0.868600
C261	C26	0.520260	0.644400	0.774970
H181	H18	0.442200	0.604600	0.783200
C271	C27	0.742600	0.755300	0.748310
H191	H19	0.822200	0.791700	0.740900
C281	C28	0.531950	0.725800	0.698500
H201	H20	0.462600	0.743500	0.656800
C291	C29	0.645790	0.780900	0.683800
C301	C30	0.667090	0.863000	0.598760
C311	C31	0.971800	0.404100	0.252030
H211	H21	0.037100	0.468600	0.255900
C321	C32	0.809500	0.305700	0.170600
H221	H22	0.759200	0.296700	0.115000
C331	C33	0.783700	0.223900	0.244090
H231	H23	0.715700	0.163000	0.239200
C341	C34	0.858620	0.232400	0.324800
C351	C35	0.955600	0.323600	0.328040
H241	H24	0.010200	0.331000	0.381600
C361	C36	0.832440	0.147100	0.407580
O91	O9	0.773240	0.863180	0.571590
O101	O10	0.575400	0.923700	0.560460
O111	O11	0.723430	0.140940	0.427580
O121	O12	0.923340	0.090000	0.449770
Li51	Li5	0.910200	0.978800	0.560500
Li61	Li6	0.595300	0.015800	0.444100
N51	N5	0.612980	0.618900	0.837470
N61	N6	0.901050	0.396200	0.173560
C371	C37	0.278500	0.175500	0.676030
H251	H25	0.211900	0.160400	0.631400
C381	C38	0.479740	0.144400	0.725030
H261	H26	0.557800	0.104600	0.716800
C391	C39	0.257400	0.255300	0.751690
H271	H27	0.177800	0.291700	0.759100
C401	C40	0.468050	0.225800	0.801500
H281	H28	0.537400	0.243500	0.843200
C411	C41	0.354210	0.280900	0.816200
C421	C42	0.332910	0.363000	0.901240
C431	C43	0.028200	0.904100	0.247970
H291	H29	0.962900	0.968600	0.244100
C441	C44	0.190500	0.805700	0.329400
H301	H30	0.240800	0.796700	0.385000
C451	C45	0.216300	0.723900	0.255910
H311	H31	0.284300	0.663000	0.260800
C461	C46	0.141380	0.732400	0.175200
C471	C47	0.044400	0.823600	0.171960
H321	H32	0.989800	0.831000	0.118400
C481	C48	0.167560	0.647100	0.092420
O131	O13	0.226760	0.363180	0.928410
O141	O14	0.424600	0.423700	0.939540
O151	O15	0.276570	0.640940	0.072420
O161	O16	0.076660	0.590000	0.050230
Li71	Li7	0.089800	0.478800	0.939500
Li81	Li8	0.404700	0.515800	0.055900
N71	N7	0.387020	0.118900	0.662530
N81	N8	0.098950	0.896200	0.326440
