data_XUNSIK_clean_PM
_symmetry_space_group_name_H-M	'P1'
_cell_length_a	5.424100
_cell_length_b	13.829300
_cell_length_c	11.118100
_cell_angle_alpha	90.000000
_cell_angle_beta	102.790000
_cell_angle_gamma	90.000000
_symmetry_Int_Tables_number 1

loop_
_symmetry_equiv_pos_as_xyz
'x,y,z'

loop_
_atom_site_label
_atom_site_type_symbol
_atom_site_fract_x
_atom_site_fract_y
_atom_site_fract_z
O11	O1	0.823900	0.046770	0.408840
N11	N1	0.677000	0.317690	0.098960
O21	O2	0.419500	0.086350	0.389620
C11	C1	0.630600	0.096470	0.365760
C21	C2	0.653200	0.175120	0.273950
C31	C3	0.839200	0.172840	0.205640
H11	H1	0.963400	0.123200	0.218600
C41	C4	0.501800	0.320240	0.167400
H21	H2	0.384900	0.372400	0.155300
C51	C5	0.839700	0.244130	0.118560
H31	H3	0.963100	0.240500	0.069900
C61	C6	0.482700	0.251370	0.254040
H41	H4	0.354400	0.255900	0.299700
Li11	Li1	0.182900	0.065600	0.485000
O31	O3	0.676100	0.546770	0.091160
N21	N2	0.823000	0.817690	0.401040
O41	O4	0.080500	0.586350	0.110380
C71	C7	0.869400	0.596470	0.134240
C81	C8	0.846800	0.675120	0.226050
C91	C9	0.660800	0.672840	0.294360
H51	H5	0.536600	0.623200	0.281400
C101	C10	0.998200	0.820240	0.332600
H61	H6	0.115100	0.872400	0.344700
C111	C11	0.660300	0.744130	0.381440
H71	H7	0.536900	0.740500	0.430100
C121	C12	0.017300	0.751370	0.245960
H81	H8	0.145600	0.755900	0.200300
Li21	Li2	0.317100	0.565600	0.015000
O51	O5	0.176100	0.953230	0.591160
N31	N3	0.323000	0.682310	0.901040
O61	O6	0.580500	0.913650	0.610380
C131	C13	0.369400	0.903530	0.634240
C141	C14	0.346800	0.824880	0.726050
C151	C15	0.160800	0.827160	0.794360
H91	H9	0.036600	0.876800	0.781400
C161	C16	0.498200	0.679760	0.832600
H101	H10	0.615100	0.627600	0.844700
C171	C17	0.160300	0.755870	0.881440
H111	H11	0.036900	0.759500	0.930100
C181	C18	0.517300	0.748630	0.745960
H121	H12	0.645600	0.744100	0.700300
Li31	Li3	0.817100	0.934400	0.515000
O71	O7	0.323900	0.453230	0.908840
N41	N4	0.177000	0.182310	0.598960
O81	O8	0.919500	0.413650	0.889620
C191	C19	0.130600	0.403530	0.865760
C201	C20	0.153200	0.324880	0.773950
C211	C21	0.339200	0.327160	0.705640
H131	H13	0.463400	0.376800	0.718600
C221	C22	0.001800	0.179760	0.667400
H141	H14	0.884900	0.127600	0.655300
C231	C23	0.339700	0.255870	0.618560
H151	H15	0.463100	0.259500	0.569900
C241	C24	0.982700	0.248630	0.754040
H161	H16	0.854400	0.244100	0.799700
Li41	Li4	0.682900	0.434400	0.985000
