data_XUNSOQ_clean_PM
_symmetry_space_group_name_H-M	'P1'
_cell_length_a	5.401300
_cell_length_b	17.644000
_cell_length_c	17.825000
_cell_angle_alpha	89.391000
_cell_angle_beta	85.708000
_cell_angle_gamma	86.268000
_symmetry_Int_Tables_number 1

loop_
_symmetry_equiv_pos_as_xyz
'x,y,z'

loop_
_atom_site_label
_atom_site_type_symbol
_atom_site_fract_x
_atom_site_fract_y
_atom_site_fract_z
O11	O1	0.364400	0.568370	0.498130
O21	O2	0.051800	0.004080	0.400880
O31	O3	0.346800	0.066850	0.013640
N11	N1	0.292700	0.853700	0.464700
O41	O4	0.947300	0.092610	0.992020
O51	O5	0.142300	0.497230	0.932380
O61	O6	0.961100	0.597560	0.487510
O71	O7	0.642700	0.002810	0.432620
C11	C1	0.186600	0.195800	0.016000
C21	C2	0.228600	0.697000	0.478100
N21	N2	0.714200	0.028400	0.147900
N31	N3	0.213900	0.352800	0.032400
N41	N4	0.271700	0.474300	0.648700
C31	C3	0.565000	0.045800	0.278000
H11	H1	0.433600	0.063800	0.313000
C41	C4	0.430800	0.728700	0.504900
H21	H2	0.554300	0.697500	0.527800
C51	C5	0.179800	0.614400	0.488700
C61	C6	0.382800	0.303400	0.057900
H31	H3	0.515800	0.322400	0.082500
C71	C7	0.376500	0.224600	0.050800
H41	H4	0.503100	0.191500	0.069900
O81	O8	0.549700	0.503490	0.904940
C81	C8	0.831500	0.005100	0.385200
C91	C9	0.155200	0.112100	0.007400
C101	C10	0.332400	0.499000	0.886300
C111	C11	0.782600	0.011300	0.302800
C121	C12	0.103000	0.821900	0.436800
H51	H5	0.988200	0.853600	0.410900
C131	C13	0.453400	0.806800	0.498200
H61	H6	0.591100	0.827600	0.518800
C141	C14	0.063400	0.745500	0.443500
H71	H7	0.921000	0.726500	0.423900
C151	C15	0.299400	0.493200	0.803800
C161	C16	0.106100	0.457600	0.775900
H81	H8	0.977000	0.439500	0.809200
C171	C17	0.006500	0.247300	0.990400
H91	H9	0.867900	0.229800	0.967500
C181	C18	0.960700	0.985500	0.249300
H101	H10	0.112400	0.961600	0.263900
C191	C19	0.101800	0.448600	0.699200
H111	H11	0.969900	0.422400	0.681300
C201	C20	0.451700	0.510900	0.676800
H121	H12	0.572400	0.531600	0.642300
C211	C21	0.542600	0.053500	0.201000
H131	H13	0.394100	0.078400	0.185100
C221	C22	0.029500	0.324100	0.998500
H141	H14	0.907400	0.358400	0.978800
Li11	Li1	0.198900	0.470400	0.037500
C231	C23	0.474800	0.520900	0.752300
H151	H15	0.610000	0.546600	0.768700
C241	C24	0.921300	0.994000	0.173600
H161	H16	0.047800	0.974400	0.137800
Li21	Li2	0.294100	0.465500	0.533400
Li31	Li3	0.310600	0.972400	0.461300
Li41	Li4	0.309900	0.963900	0.968200
O91	O9	0.635600	0.431630	0.501870
O101	O10	0.948200	0.995920	0.599120
O111	O11	0.653200	0.933150	0.986360
N51	N5	0.707300	0.146300	0.535300
O121	O12	0.052700	0.907390	0.007980
O131	O13	0.857700	0.502770	0.067620
O141	O14	0.038900	0.402440	0.512490
O151	O15	0.357300	0.997190	0.567380
C251	C25	0.813400	0.804200	0.984000
C261	C26	0.771400	0.303000	0.521900
N61	N6	0.285800	0.971600	0.852100
N71	N7	0.786100	0.647200	0.967600
N81	N8	0.728300	0.525700	0.351300
C271	C27	0.435000	0.954200	0.722000
H171	H17	0.566400	0.936200	0.687000
C281	C28	0.569200	0.271300	0.495100
H181	H18	0.445700	0.302500	0.472200
C291	C29	0.820200	0.385600	0.511300
C301	C30	0.617200	0.696600	0.942100
H191	H19	0.484200	0.677600	0.917500
C311	C31	0.623500	0.775400	0.949200
H201	H20	0.496900	0.808500	0.930100
O161	O16	0.450300	0.496510	0.095060
C321	C32	0.168500	0.994900	0.614800
C331	C33	0.844800	0.887900	0.992600
C341	C34	0.667600	0.501000	0.113700
C351	C35	0.217400	0.988700	0.697200
C361	C36	0.897000	0.178100	0.563200
H211	H21	0.011800	0.146400	0.589100
C371	C37	0.546600	0.193200	0.501800
H221	H22	0.408900	0.172400	0.481200
C381	C38	0.936600	0.254500	0.556500
H231	H23	0.079000	0.273500	0.576100
C391	C39	0.700600	0.506800	0.196200
C401	C40	0.893900	0.542400	0.224100
H241	H24	0.023000	0.560500	0.190800
C411	C41	0.993500	0.752700	0.009600
H251	H25	0.132100	0.770200	0.032500
C421	C42	0.039300	0.014500	0.750700
H261	H26	0.887600	0.038400	0.736100
C431	C43	0.898200	0.551400	0.300800
H271	H27	0.030100	0.577600	0.318700
C441	C44	0.548300	0.489100	0.323200
H281	H28	0.427600	0.468400	0.357700
C451	C45	0.457400	0.946500	0.799000
H291	H29	0.605900	0.921600	0.814900
C461	C46	0.970500	0.675900	0.001500
H301	H30	0.092600	0.641600	0.021200
Li51	Li5	0.801100	0.529600	0.962500
C471	C47	0.525200	0.479100	0.247700
H311	H31	0.390000	0.453400	0.231300
C481	C48	0.078700	0.006000	0.826400
H321	H32	0.952200	0.025600	0.862200
Li61	Li6	0.705900	0.534500	0.466600
Li71	Li7	0.689400	0.027600	0.538700
Li81	Li8	0.690100	0.036100	0.031800
