data_XUNSUW_clean_PM
_symmetry_space_group_name_H-M	'P1'
_cell_length_a	10.240200
_cell_length_b	9.502300
_cell_length_c	15.291200
_cell_angle_alpha	90.000000
_cell_angle_beta	98.328000
_cell_angle_gamma	90.000000
_symmetry_Int_Tables_number 1

loop_
_symmetry_equiv_pos_as_xyz
'x,y,z'

loop_
_atom_site_label
_atom_site_type_symbol
_atom_site_fract_x
_atom_site_fract_y
_atom_site_fract_z
O11	O1	0.835000	0.073000	0.573400
O21	O2	0.673200	0.877400	0.484300
O31	O3	0.034800	0.165700	0.569800
N11	N1	0.880100	0.430800	0.818400
C11	C1	0.928000	0.157900	0.599400
O41	O4	0.464200	0.811900	0.444700
N21	N2	0.707200	0.363400	0.415600
C21	C2	0.908000	0.256400	0.673700
C31	C3	0.629300	0.638700	0.444200
C41	C4	0.786600	0.338700	0.786300
H11	H1	0.709400	0.332900	0.813900
C51	C5	0.796100	0.251800	0.715500
H21	H2	0.726200	0.188800	0.695100
C61	C6	0.006000	0.352000	0.706900
H31	H3	0.084800	0.358900	0.681200
C71	C7	0.540100	0.540400	0.401900
H41	H4	0.451000	0.566200	0.382300
C81	C8	0.584500	0.787900	0.458600
C91	C9	0.757600	0.595000	0.472200
H51	H5	0.821100	0.658100	0.501800
C101	C10	0.791000	0.457200	0.456000
H61	H6	0.879300	0.428200	0.474900
C111	C11	0.987600	0.436600	0.777600
H71	H7	0.054700	0.502400	0.798400
C121	C12	0.583100	0.405700	0.389000
H81	H8	0.521800	0.339800	0.359900
Li11	Li1	0.649100	0.032000	0.564900
Li21	Li2	0.838600	0.961300	0.464700
O51	O5	0.665000	0.573000	0.926600
O61	O6	0.826800	0.377400	0.015700
O71	O7	0.465200	0.665700	0.930200
N31	N3	0.619900	0.930800	0.681600
C131	C13	0.572000	0.657900	0.900600
O81	O8	0.035800	0.311900	0.055300
N41	N4	0.792800	0.863400	0.084400
C141	C14	0.592000	0.756400	0.826300
C151	C15	0.870700	0.138700	0.055800
C161	C16	0.713400	0.838700	0.713700
H91	H9	0.790600	0.832900	0.686100
C171	C17	0.703900	0.751800	0.784500
H101	H10	0.773800	0.688800	0.804900
C181	C18	0.494000	0.852000	0.793100
H111	H11	0.415200	0.858900	0.818800
C191	C19	0.959900	0.040400	0.098100
H121	H12	0.049000	0.066200	0.117700
C201	C20	0.915500	0.287900	0.041400
C211	C21	0.742400	0.095000	0.027800
H131	H13	0.678900	0.158100	0.998200
C221	C22	0.709000	0.957200	0.044000
H141	H14	0.620700	0.928200	0.025100
C231	C23	0.512400	0.936600	0.722400
H151	H15	0.445300	0.002400	0.701600
C241	C24	0.916900	0.905700	0.111000
H161	H16	0.978200	0.839800	0.140100
Li31	Li3	0.850900	0.532000	0.935100
Li41	Li4	0.661400	0.461300	0.035300
O91	O9	0.165000	0.927000	0.426600
O101	O10	0.326800	0.122600	0.515700
O111	O11	0.965200	0.834300	0.430200
N51	N5	0.119900	0.569200	0.181600
C251	C25	0.072000	0.842100	0.400600
O121	O12	0.535800	0.188100	0.555300
N61	N6	0.292800	0.636600	0.584400
C261	C26	0.092000	0.743600	0.326300
C271	C27	0.370700	0.361300	0.555800
C281	C28	0.213400	0.661300	0.213700
H171	H17	0.290600	0.667100	0.186100
C291	C29	0.203900	0.748200	0.284500
H181	H18	0.273800	0.811200	0.304900
C301	C30	0.994000	0.648000	0.293100
H191	H19	0.915200	0.641100	0.318800
C311	C31	0.459900	0.459600	0.598100
H201	H20	0.549000	0.433800	0.617700
C321	C32	0.415500	0.212100	0.541400
C331	C33	0.242400	0.405000	0.527800
H211	H21	0.178900	0.341900	0.498200
C341	C34	0.209000	0.542800	0.544000
H221	H22	0.120700	0.571800	0.525100
C351	C35	0.012400	0.563400	0.222400
H231	H23	0.945300	0.497600	0.201600
C361	C36	0.416900	0.594300	0.611000
H241	H24	0.478200	0.660200	0.640100
Li51	Li5	0.350900	0.968000	0.435100
Li61	Li6	0.161400	0.038700	0.535300
O131	O13	0.335000	0.427000	0.073400
O141	O14	0.173200	0.622600	0.984300
O151	O15	0.534800	0.334300	0.069800
N71	N7	0.380100	0.069200	0.318400
C371	C37	0.428000	0.342100	0.099400
O161	O16	0.964200	0.688100	0.944700
N81	N8	0.207200	0.136600	0.915600
C381	C38	0.408000	0.243600	0.173700
C391	C39	0.129300	0.861300	0.944200
C401	C40	0.286600	0.161300	0.286300
H251	H25	0.209400	0.167100	0.313900
C411	C41	0.296100	0.248200	0.215500
H261	H26	0.226200	0.311200	0.195100
C421	C42	0.506000	0.148000	0.206900
H271	H27	0.584800	0.141100	0.181200
C431	C43	0.040100	0.959600	0.901900
H281	H28	0.951000	0.933800	0.882300
C441	C44	0.084500	0.712100	0.958600
C451	C45	0.257600	0.905000	0.972200
H291	H29	0.321100	0.841900	0.001800
C461	C46	0.291000	0.042800	0.956000
H301	H30	0.379300	0.071800	0.974900
C471	C47	0.487600	0.063400	0.277600
H311	H31	0.554700	0.997600	0.298400
C481	C48	0.083100	0.094300	0.889000
H321	H32	0.021800	0.160200	0.859900
Li71	Li7	0.149100	0.468000	0.064900
Li81	Li8	0.338600	0.538700	0.964700
