data_XUNSAC_clean_PM
_symmetry_space_group_name_H-M	'P1'
_cell_length_a	10.809300
_cell_length_b	14.347600
_cell_length_c	10.824300
_cell_angle_alpha	90.000000
_cell_angle_beta	103.559000
_cell_angle_gamma	90.000000
_symmetry_Int_Tables_number 1

loop_
_symmetry_equiv_pos_as_xyz
'x,y,z'

loop_
_atom_site_label
_atom_site_type_symbol
_atom_site_fract_x
_atom_site_fract_y
_atom_site_fract_z
C11	C1	0.625800	0.090610	0.059800
H11	H1	0.689000	0.043300	0.073500
C21	C2	0.132900	0.747340	0.421100
H21	H2	0.072400	0.796500	0.407200
C31	C3	0.122400	0.678360	0.507100
H31	H3	0.054900	0.680000	0.549600
Li11	Li1	0.469600	0.482600	0.744300
O11	O1	0.965510	0.377360	0.843290
C41	C4	0.043750	0.245610	0.970730
N11	N1	0.734950	0.752820	0.381510
N21	N2	0.025170	0.102560	0.141400
O21	O2	0.787770	0.471230	0.665260
C51	C5	0.058680	0.323980	0.880800
C61	C6	0.711160	0.605590	0.543700
C71	C7	0.115700	0.164870	0.976600
H41	H4	0.173100	0.157200	0.923000
C81	C8	0.102300	0.095650	0.062000
H51	H5	0.150900	0.040200	0.064000
C91	C9	0.961000	0.252980	0.050920
H61	H6	0.908600	0.306500	0.048300
C101	C10	0.694400	0.525480	0.628750
O31	O3	0.092350	0.520980	0.648320
O41	O4	0.668800	0.338850	0.873270
C111	C11	0.657700	0.758900	0.462300
H71	H7	0.611900	0.815100	0.464400
O51	O5	0.290660	0.474260	0.657230
O61	O6	0.163000	0.328920	0.851670
C121	C12	0.196600	0.528010	0.619900
C131	C13	0.956200	0.180830	0.134820
H81	H8	0.900900	0.187200	0.190800
O71	O7	0.459040	0.361660	0.826280
C141	C14	0.800200	0.673630	0.382300
H91	H9	0.853900	0.667800	0.324700
C151	C15	0.793500	0.599360	0.462900
H101	H10	0.844300	0.545300	0.462700
N31	N3	0.224830	0.748220	0.355950
C161	C16	0.642000	0.687070	0.542400
H111	H11	0.584300	0.693500	0.596000
O81	O8	0.589180	0.518640	0.655810
Li21	Li2	0.273600	0.358300	0.747900
C171	C17	0.636600	0.163530	0.978850
H121	H12	0.706600	0.166400	0.939700
C181	C18	0.210900	0.606910	0.531170
Li31	Li3	0.972000	0.489500	0.739200
C191	C19	0.310600	0.679170	0.380500
H131	H13	0.376400	0.678700	0.335700
N41	N4	0.531020	0.083460	0.119690
C201	C20	0.557170	0.317350	0.877470
C211	C21	0.441000	0.149500	0.095200
H141	H14	0.372600	0.145300	0.136300
C221	C22	0.543500	0.232360	0.955910
C231	C23	0.308900	0.608280	0.467300
H151	H15	0.373200	0.561700	0.482900
Li41	Li4	0.782000	0.360100	0.765900
C241	C24	0.442000	0.223740	0.013600
H161	H16	0.374600	0.267900	0.997400
C251	C25	0.374200	0.590610	0.940200
H171	H17	0.311000	0.543300	0.926500
C261	C26	0.867100	0.247340	0.578900
H181	H18	0.927600	0.296500	0.592800
C271	C27	0.877600	0.178360	0.492900
H191	H19	0.945100	0.180000	0.450400
Li51	Li5	0.530400	0.982600	0.255700
O91	O9	0.034490	0.877360	0.156710
C281	C28	0.956250	0.745610	0.029270
N51	N5	0.265050	0.252820	0.618490
N61	N6	0.974830	0.602560	0.858600
O101	O10	0.212230	0.971230	0.334740
C291	C29	0.941320	0.823980	0.119200
C301	C30	0.288840	0.105590	0.456300
C311	C31	0.884300	0.664870	0.023400
H201	H20	0.826900	0.657200	0.077000
C321	C32	0.897700	0.595650	0.938000
H211	H21	0.849100	0.540200	0.936000
C331	C33	0.039000	0.752980	0.949080
H221	H22	0.091400	0.806500	0.951700
C341	C34	0.305600	0.025480	0.371250
O111	O11	0.907650	0.020980	0.351680
O121	O12	0.331200	0.838850	0.126730
C351	C35	0.342300	0.258900	0.537700
H231	H23	0.388100	0.315100	0.535600
O131	O13	0.709340	0.974260	0.342770
O141	O14	0.837000	0.828920	0.148330
C361	C36	0.803400	0.028010	0.380100
C371	C37	0.043800	0.680830	0.865180
H241	H24	0.099100	0.687200	0.809200
O151	O15	0.540960	0.861660	0.173720
C381	C38	0.199800	0.173630	0.617700
H251	H25	0.146100	0.167800	0.675300
C391	C39	0.206500	0.099360	0.537100
H261	H26	0.155700	0.045300	0.537300
N71	N7	0.775170	0.248220	0.644050
C401	C40	0.358000	0.187070	0.457600
H271	H27	0.415700	0.193500	0.404000
O161	O16	0.410820	0.018640	0.344190
Li61	Li6	0.726400	0.858300	0.252100
C411	C41	0.363400	0.663530	0.021150
H281	H28	0.293400	0.666400	0.060300
C421	C42	0.789100	0.106910	0.468830
Li71	Li7	0.028000	0.989500	0.260800
C431	C43	0.689400	0.179170	0.619500
H291	H29	0.623600	0.178700	0.664300
N81	N8	0.468980	0.583460	0.880310
C441	C44	0.442830	0.817350	0.122530
C451	C45	0.559000	0.649500	0.904800
H301	H30	0.627400	0.645300	0.863700
C461	C46	0.456500	0.732360	0.044090
C471	C47	0.691100	0.108280	0.532700
H311	H31	0.626800	0.061700	0.517100
Li81	Li8	0.218000	0.860100	0.234100
C481	C48	0.558000	0.723740	0.986400
H321	H32	0.625400	0.767900	0.002600
