data_XUNTAD_clean_PM
_symmetry_space_group_name_H-M	'P1'
_cell_length_a	10.417500
_cell_length_b	9.592200
_cell_length_c	15.287700
_cell_angle_alpha	90.000000
_cell_angle_beta	97.479000
_cell_angle_gamma	90.000000
_symmetry_Int_Tables_number 1

loop_
_symmetry_equiv_pos_as_xyz
'x,y,z'

loop_
_atom_site_label
_atom_site_type_symbol
_atom_site_fract_x
_atom_site_fract_y
_atom_site_fract_z
O11	O1	0.332540	0.922850	0.072690
O21	O2	0.174410	0.117560	0.983190
O31	O3	0.533780	0.844390	0.072410
O41	O4	0.969560	0.182330	0.944780
N11	N1	0.381070	0.569730	0.317790
C11	C1	0.426310	0.844730	0.099840
N21	N2	0.206820	0.629770	0.919730
C21	C2	0.087680	0.205730	0.958500
C31	C3	0.131060	0.354640	0.945300
C41	C4	0.043130	0.453300	0.907280
H11	H1	0.955300	0.428500	0.889500
C51	C5	0.257200	0.397080	0.971840
H21	H2	0.319900	0.333300	0.998900
C61	C6	0.408050	0.744450	0.174360
C71	C7	0.492840	0.581020	0.285520
H31	H3	0.564600	0.528600	0.312500
C81	C8	0.510190	0.665650	0.214180
H41	H4	0.591900	0.669200	0.193000
C91	C9	0.085330	0.588030	0.895750
H51	H5	0.024500	0.654300	0.869300
Li11	Li1	0.148990	0.967700	0.066240
C101	C10	0.282680	0.645100	0.278310
H61	H6	0.201600	0.638200	0.300200
C111	C11	0.290020	0.535230	0.958020
H71	H7	0.376500	0.563900	0.976900
Li21	Li2	0.339030	0.033200	0.963900
C121	C12	0.291230	0.733000	0.207380
H81	H8	0.217900	0.784500	0.181900
O51	O5	0.167460	0.422850	0.427310
O61	O6	0.325590	0.617560	0.516810
O71	O7	0.966220	0.344390	0.427590
O81	O8	0.530440	0.682330	0.555220
N31	N3	0.118930	0.069730	0.182210
C131	C13	0.073690	0.344730	0.400160
N41	N4	0.293180	0.129770	0.580270
C141	C14	0.412320	0.705730	0.541500
C151	C15	0.368940	0.854640	0.554700
C161	C16	0.456870	0.953300	0.592720
H91	H9	0.544700	0.928500	0.610500
C171	C17	0.242800	0.897080	0.528160
H101	H10	0.180100	0.833300	0.501100
C181	C18	0.091950	0.244450	0.325640
C191	C19	0.007160	0.081020	0.214480
H111	H11	0.935400	0.028600	0.187500
C201	C20	0.989810	0.165650	0.285820
H121	H12	0.908100	0.169200	0.307000
C211	C21	0.414670	0.088030	0.604250
H131	H13	0.475500	0.154300	0.630700
Li31	Li3	0.351010	0.467700	0.433760
C221	C22	0.217320	0.145100	0.221690
H141	H14	0.298400	0.138200	0.199800
C231	C23	0.209980	0.035230	0.541980
H151	H15	0.123500	0.063900	0.523100
Li41	Li4	0.160970	0.533200	0.536100
C241	C24	0.208770	0.233000	0.292620
H161	H16	0.282100	0.284500	0.318100
O91	O9	0.667460	0.077150	0.927310
O101	O10	0.825590	0.882440	0.016810
O111	O11	0.466220	0.155610	0.927590
O121	O12	0.030440	0.817670	0.055220
N51	N5	0.618930	0.430270	0.682210
C251	C25	0.573690	0.155270	0.900160
N61	N6	0.793180	0.370230	0.080270
C261	C26	0.912320	0.794270	0.041500
C271	C27	0.868940	0.645360	0.054700
C281	C28	0.956870	0.546700	0.092720
H171	H17	0.044700	0.571500	0.110500
C291	C29	0.742800	0.602920	0.028160
H181	H18	0.680100	0.666700	0.001100
C301	C30	0.591950	0.255550	0.825640
C311	C31	0.507160	0.418980	0.714480
H191	H19	0.435400	0.471400	0.687500
C321	C32	0.489810	0.334350	0.785820
H201	H20	0.408100	0.330800	0.807000
C331	C33	0.914670	0.411970	0.104250
H211	H21	0.975500	0.345700	0.130700
Li51	Li5	0.851010	0.032300	0.933760
C341	C34	0.717320	0.354900	0.721690
H221	H22	0.798400	0.361800	0.699800
C351	C35	0.709980	0.464770	0.041980
H231	H23	0.623500	0.436100	0.023100
Li61	Li6	0.660970	0.966800	0.036100
C361	C36	0.708770	0.267000	0.792620
H241	H24	0.782100	0.215500	0.818100
O131	O13	0.832540	0.577150	0.572690
O141	O14	0.674410	0.382440	0.483190
O151	O15	0.033780	0.655610	0.572410
O161	O16	0.469560	0.317670	0.444780
N71	N7	0.881070	0.930270	0.817790
C371	C37	0.926310	0.655270	0.599840
N81	N8	0.706820	0.870230	0.419730
C381	C38	0.587680	0.294270	0.458500
C391	C39	0.631060	0.145360	0.445300
C401	C40	0.543130	0.046700	0.407280
H251	H25	0.455300	0.071500	0.389500
C411	C41	0.757200	0.102920	0.471840
H261	H26	0.819900	0.166700	0.498900
C421	C42	0.908050	0.755550	0.674360
C431	C43	0.992840	0.918980	0.785520
H271	H27	0.064600	0.971400	0.812500
C441	C44	0.010190	0.834350	0.714180
H281	H28	0.091900	0.830800	0.693000
C451	C45	0.585330	0.911970	0.395750
H291	H29	0.524500	0.845700	0.369300
Li71	Li7	0.648990	0.532300	0.566240
C461	C46	0.782680	0.854900	0.778310
H301	H30	0.701600	0.861800	0.800200
C471	C47	0.790020	0.964770	0.458020
H311	H31	0.876500	0.936100	0.476900
Li81	Li8	0.839030	0.466800	0.463900
C481	C48	0.791230	0.767000	0.707380
H321	H32	0.717900	0.715500	0.681900
