data_XUPSAE_clean_PM
_symmetry_space_group_name_H-M	'P1'
_cell_length_a	14.795500
_cell_length_b	14.795500
_cell_length_c	11.778500
_cell_angle_alpha	90.000000
_cell_angle_beta	90.000000
_cell_angle_gamma	90.000000
_symmetry_Int_Tables_number 1

loop_
_symmetry_equiv_pos_as_xyz
'x,y,z'

loop_
_atom_site_label
_atom_site_type_symbol
_atom_site_fract_x
_atom_site_fract_y
_atom_site_fract_z
O11	O1	0.621290	0.380320	0.600890
O21	O2	0.603890	0.287560	0.742600
C11	C1	0.592710	0.361410	0.696270
C21	C2	0.542770	0.430430	0.757880
C31	C3	0.542770	0.430430	0.876330
H11	H1	0.574010	0.379620	0.919590
O31	O3	0.121290	0.880320	0.100890
O41	O4	0.103890	0.787560	0.242600
C41	C4	0.092710	0.861410	0.196270
C51	C5	0.042770	0.930430	0.257880
C61	C6	0.042770	0.930430	0.376330
H21	H2	0.074010	0.879620	0.419590
O51	O5	0.878710	0.119680	0.100890
O61	O6	0.896110	0.212440	0.242600
C71	C7	0.907290	0.138590	0.196270
C81	C8	0.957230	0.069570	0.257880
C91	C9	0.957230	0.069570	0.376330
H31	H3	0.925990	0.120380	0.419590
O71	O7	0.378710	0.619680	0.600890
O81	O8	0.396110	0.712440	0.742600
C101	C10	0.407290	0.638590	0.696270
C111	C11	0.457230	0.569570	0.757880
C121	C12	0.457230	0.569570	0.876330
H41	H4	0.425990	0.620380	0.919590
O91	O9	0.619680	0.121290	0.850890
O101	O10	0.712440	0.103890	0.992600
C131	C13	0.638590	0.092710	0.946270
C141	C14	0.569570	0.042770	0.007880
C151	C15	0.569570	0.042770	0.126330
H51	H5	0.620380	0.074010	0.169590
O111	O11	0.119680	0.621290	0.350890
O121	O12	0.212440	0.603890	0.492600
C161	C16	0.138590	0.592710	0.446270
C171	C17	0.069570	0.542770	0.507880
C181	C18	0.069570	0.542770	0.626330
H61	H6	0.120380	0.574010	0.669590
O131	O13	0.880320	0.378710	0.350890
O141	O14	0.787560	0.396110	0.492600
C191	C19	0.861410	0.407290	0.446270
C201	C20	0.930430	0.457230	0.507880
C211	C21	0.930430	0.457230	0.626330
H71	H7	0.879620	0.425990	0.669590
O151	O15	0.380320	0.878710	0.850890
O161	O16	0.287560	0.896110	0.992600
C221	C22	0.361410	0.907290	0.946270
C231	C23	0.430430	0.957230	0.007880
C241	C24	0.430430	0.957230	0.126330
H81	H8	0.379620	0.925990	0.169590
O171	O17	0.878710	0.380320	0.149110
O181	O18	0.896110	0.287560	0.007400
C251	C25	0.907290	0.361410	0.053730
C261	C26	0.957230	0.430430	0.992120
C271	C27	0.957230	0.430430	0.873670
H91	H9	0.925990	0.379620	0.830410
O191	O19	0.378710	0.880320	0.649110
O201	O20	0.396110	0.787560	0.507400
C281	C28	0.407290	0.861410	0.553730
C291	C29	0.457230	0.930430	0.492120
C301	C30	0.457230	0.930430	0.373670
H101	H10	0.425990	0.879620	0.330410
O211	O21	0.621290	0.119680	0.649110
O221	O22	0.603890	0.212440	0.507400
C311	C31	0.592710	0.138590	0.553730
C321	C32	0.542770	0.069570	0.492120
C331	C33	0.542770	0.069570	0.373670
H111	H11	0.574010	0.120380	0.330410
O231	O23	0.121290	0.619680	0.149110
O241	O24	0.103890	0.712440	0.007400
C341	C34	0.092710	0.638590	0.053730
C351	C35	0.042770	0.569570	0.992120
C361	C36	0.042770	0.569570	0.873670
H121	H12	0.074010	0.620380	0.830410
O251	O25	0.880320	0.121290	0.899110
O261	O26	0.787560	0.103890	0.757400
C371	C37	0.861410	0.092710	0.803730
C381	C38	0.930430	0.042770	0.742120
C391	C39	0.930430	0.042770	0.623670
H131	H13	0.879620	0.074010	0.580410
O271	O27	0.380320	0.621290	0.399110
O281	O28	0.287560	0.603890	0.257400
C401	C40	0.361410	0.592710	0.303730
C411	C41	0.430430	0.542770	0.242120
C421	C42	0.430430	0.542770	0.123670
H141	H14	0.379620	0.574010	0.080410
O291	O29	0.619680	0.378710	0.399110
O301	O30	0.712440	0.396110	0.257400
C431	C43	0.638590	0.407290	0.303730
C441	C44	0.569570	0.457230	0.242120
C451	C45	0.569570	0.457230	0.123670
H151	H15	0.620380	0.425990	0.080410
O311	O31	0.119680	0.878710	0.899110
O321	O32	0.212440	0.896110	0.757400
C461	C46	0.138590	0.907290	0.803730
C471	C47	0.069570	0.957230	0.742120
C481	C48	0.069570	0.957230	0.623670
H161	H16	0.120380	0.925990	0.580410
Al11	Al1	0.692360	0.307640	0.500000
Al21	Al2	0.192360	0.807640	0.000000
Al31	Al3	0.807640	0.192360	0.000000
Al41	Al4	0.307640	0.692360	0.500000
Al51	Al5	0.692360	0.192360	0.750000
Al61	Al6	0.192360	0.692360	0.250000
Al71	Al7	0.807640	0.307640	0.250000
Al81	Al8	0.307640	0.807640	0.750000
O331	O33	0.751990	0.250000	0.625000
H171	H17	0.812820	0.250000	0.625000
O341	O34	0.251990	0.750000	0.125000
H181	H18	0.312820	0.750000	0.125000
O351	O35	0.748010	0.250000	0.125000
H191	H19	0.687180	0.250000	0.125000
O361	O36	0.248010	0.750000	0.625000
H201	H20	0.187180	0.750000	0.625000
O371	O37	0.750000	0.251990	0.875000
H211	H21	0.750000	0.312820	0.875000
O381	O38	0.250000	0.751990	0.375000
H221	H22	0.250000	0.812820	0.375000
O391	O39	0.750000	0.248010	0.375000
H231	H23	0.750000	0.187180	0.375000
O401	O40	0.250000	0.748010	0.875000
H241	H24	0.250000	0.687180	0.875000
C491	C49	0.500000	0.500000	0.698660
C501	C50	0.500000	0.500000	0.935560
H251	H25	0.500000	0.500000	0.612140
C511	C51	0.000000	0.000000	0.198660
C521	C52	0.000000	0.000000	0.435560
H261	H26	0.000000	0.000000	0.112140
C531	C53	0.500000	0.000000	0.948660
C541	C54	0.500000	0.000000	0.185560
H271	H27	0.500000	0.000000	0.862140
C551	C55	0.000000	0.500000	0.448660
C561	C56	0.000000	0.500000	0.685560
H281	H28	0.000000	0.500000	0.362140
C571	C57	0.000000	0.500000	0.051340
C581	C58	0.000000	0.500000	0.814440
H291	H29	0.000000	0.500000	0.137860
C591	C59	0.500000	0.000000	0.551340
C601	C60	0.500000	0.000000	0.314440
H301	H30	0.500000	0.000000	0.637860
C611	C61	0.000000	0.000000	0.801340
C621	C62	0.000000	0.000000	0.564440
H311	H31	0.000000	0.000000	0.887860
C631	C63	0.500000	0.500000	0.301340
C641	C64	0.500000	0.500000	0.064440
H321	H32	0.500000	0.500000	0.387860
