data_XUQSIN_clean_PM
_symmetry_space_group_name_H-M	'P1'
_cell_length_a	15.438000
_cell_length_b	14.691000
_cell_length_c	33.046000
_cell_angle_alpha	90.000000
_cell_angle_beta	94.832000
_cell_angle_gamma	90.000000
_symmetry_Int_Tables_number 1

loop_
_symmetry_equiv_pos_as_xyz
'x,y,z'

loop_
_atom_site_label
_atom_site_type_symbol
_atom_site_fract_x
_atom_site_fract_y
_atom_site_fract_z
W11	W1	0.532050	0.244710	0.371650
C11	C1	0.446500	0.162100	0.405500
C21	C2	0.486400	0.339000	0.414700
C31	C3	0.642100	0.212000	0.337800
C41	C4	0.495400	0.138100	0.328100
C51	C5	0.536600	0.351500	0.326300
C61	C6	0.399200	0.270400	0.349000
C71	C7	0.637800	0.331900	0.395200
C81	C8	0.606100	0.152600	0.411000
N11	N1	0.401200	0.120000	0.423600
N21	N2	0.462600	0.390000	0.437100
N31	N3	0.700800	0.193500	0.321100
N41	N4	0.474900	0.087500	0.304200
N51	N5	0.541700	0.406400	0.302800
N61	N6	0.328000	0.279200	0.336200
N71	N7	0.694100	0.378500	0.406500
N81	N8	0.644200	0.100300	0.432100
Mn11	Mn1	0.819340	0.123080	0.302100
Mn21	Mn2	0.454660	0.003890	0.248360
Mn31	Mn3	0.191570	0.290850	0.314560
Mn41	Mn4	0.804930	0.474480	0.412070
Mn51	Mn5	0.715510	0.002900	0.474270
N91	N9	0.934500	0.046100	0.284900
N101	N10	0.896100	0.171400	0.356700
N111	N11	0.764700	0.003200	0.328900
N121	N12	0.840500	0.245900	0.266100
N131	N13	0.537100	0.901300	0.284900
N141	N14	0.320500	0.957200	0.260500
N151	N15	0.386900	0.120400	0.215500
N161	N16	0.888400	0.361800	0.437000
N171	N17	0.832000	0.443800	0.348200
N181	N18	0.746800	0.604000	0.389500
N191	N19	0.835600	0.075500	0.460600
N201	N20	0.708800	0.895600	0.427400
N211	N21	0.803700	0.913400	0.514500
C91	C9	0.993100	0.016800	0.271900
C101	C10	0.938100	0.177900	0.386600
C111	C11	0.739500	0.931900	0.332800
C121	C12	0.592000	0.862800	0.303800
C131	C13	0.933900	0.298800	0.441500
C141	C14	0.898700	0.113200	0.455300
C151	C15	0.702200	0.857000	0.398200
W21	W2	0.106400	0.961160	0.244740
W31	W3	0.017060	0.181950	0.443960
W41	W4	0.696360	0.792750	0.338800
C161	C16	0.051100	0.067100	0.205600
C171	C17	0.143600	0.820200	0.238200
C181	C18	0.245300	0.956400	0.255300
C191	C19	0.995300	0.887800	0.218000
C201	C20	0.149700	0.083000	0.277200
C211	C21	0.101200	0.898900	0.303800
C221	C22	0.150400	0.947700	0.183600
C231	C23	0.095700	0.293900	0.468100
C241	C24	0.100900	0.220400	0.397500
C251	C25	0.030100	0.047000	0.419000
C261	C26	0.998200	0.188200	0.508300
C271	C27	0.134200	0.119400	0.471700
C281	C28	0.577200	0.756800	0.365900
C291	C29	0.643200	0.680400	0.302000
C301	C30	0.748800	0.803100	0.280200
C311	C31	0.835400	0.798100	0.355400
C321	C32	0.730700	0.668900	0.372200
N221	N22	0.015800	0.119700	0.184400
N231	N23	0.937300	0.846800	0.205000
N241	N24	0.170900	0.146300	0.294300
N251	N25	0.090200	0.863400	0.333700
N261	N26	0.136000	0.352600	0.481700
N271	N27	0.143800	0.244600	0.373500
N281	N28	0.032400	0.976000	0.406500
N291	N29	0.988500	0.190700	0.541800
N301	N30	0.515400	0.738300	0.380600
N311	N31	0.771900	0.811900	0.248700
N321	N32	0.907300	0.804500	0.367100
Mn61	Mn6	0.042190	0.829600	0.394080
W51	W5	0.467950	0.744710	0.128350
C331	C33	0.553500	0.662100	0.094500
C341	C34	0.513600	0.839000	0.085300
C351	C35	0.357900	0.712000	0.162200
C361	C36	0.504600	0.638100	0.171900
C371	C37	0.463400	0.851500	0.173700
C381	C38	0.600800	0.770400	0.151000
C391	C39	0.362200	0.831900	0.104800
C401	C40	0.393900	0.652600	0.089000
N331	N33	0.598800	0.620000	0.076400
N341	N34	0.537400	0.890000	0.062900
N351	N35	0.299200	0.693500	0.178900
N361	N36	0.525100	0.587500	0.195800
N371	N37	0.458300	0.906400	0.197200
N381	N38	0.672000	0.779200	0.163800
N391	N39	0.305900	0.878500	0.093500
N401	N40	0.355800	0.600300	0.067900
Mn71	Mn7	0.180660	0.623080	0.197900
Mn81	Mn8	0.545340	0.503890	0.251640
Mn91	Mn9	0.808430	0.790850	0.185440
Mn101	Mn10	0.195070	0.974480	0.087930
Mn111	Mn11	0.284490	0.502900	0.025730
N411	N41	0.065500	0.546100	0.215100
N421	N42	0.103900	0.671400	0.143300
N431	N43	0.235300	0.503200	0.171100
N441	N44	0.159500	0.745900	0.233900
N451	N45	0.462900	0.401300	0.215100
N461	N46	0.679500	0.457200	0.239500
N471	N47	0.613100	0.620400	0.284500
N481	N48	0.111600	0.861800	0.063000
N491	N49	0.168000	0.943800	0.151800
N501	N50	0.253200	0.104000	0.110500
N511	N51	0.164400	0.575500	0.039400
N521	N52	0.291200	0.395600	0.072600
N531	N53	0.196300	0.413400	0.985500
C411	C41	0.006900	0.516800	0.228100
C421	C42	0.061900	0.677900	0.113400
C431	C43	0.260500	0.431900	0.167200
C441	C44	0.408000	0.362800	0.196200
C451	C45	0.066100	0.798800	0.058500
C461	C46	0.101300	0.613200	0.044700
C471	C47	0.297800	0.357000	0.101800
W61	W6	0.893600	0.461160	0.255260
W71	W7	0.982940	0.681950	0.056040
W81	W8	0.303640	0.292750	0.161200
C481	C48	0.948900	0.567100	0.294400
C491	C49	0.856400	0.320200	0.261800
C501	C50	0.754700	0.456400	0.244700
C511	C51	0.004700	0.387800	0.282000
C521	C52	0.850300	0.583000	0.222800
C531	C53	0.898800	0.398900	0.196200
C541	C54	0.849600	0.447700	0.316400
C551	C55	0.904300	0.793900	0.031900
C561	C56	0.899100	0.720400	0.102500
C571	C57	0.969900	0.547000	0.081000
C581	C58	0.001800	0.688200	0.991700
C591	C59	0.865800	0.619400	0.028300
C601	C60	0.422800	0.256800	0.134100
C611	C61	0.356800	0.180400	0.198000
C621	C62	0.251200	0.303100	0.219800
C631	C63	0.164600	0.298100	0.144600
C641	C64	0.269300	0.168900	0.127800
N541	N54	0.984200	0.619700	0.315600
N551	N55	0.062700	0.346800	0.295000
N561	N56	0.829100	0.646300	0.205700
N571	N57	0.909800	0.363400	0.166300
N581	N58	0.864000	0.852600	0.018300
N591	N59	0.856200	0.744600	0.126500
N601	N60	0.967600	0.476000	0.093500
N611	N61	0.011500	0.690700	0.958200
N621	N62	0.484600	0.238300	0.119400
N631	N63	0.228100	0.311900	0.251300
N641	N64	0.092700	0.304500	0.132900
Mn121	Mn12	0.957810	0.329600	0.105920
W91	W9	0.467950	0.755290	0.628350
C651	C65	0.553500	0.837900	0.594500
C661	C66	0.513600	0.661000	0.585300
C671	C67	0.357900	0.788000	0.662200
C681	C68	0.504600	0.861900	0.671900
C691	C69	0.463400	0.648500	0.673700
C701	C70	0.600800	0.729600	0.651000
C711	C71	0.362200	0.668100	0.604800
C721	C72	0.393900	0.847400	0.589000
N651	N65	0.598800	0.880000	0.576400
N661	N66	0.537400	0.610000	0.562900
N671	N67	0.299200	0.806500	0.678900
N681	N68	0.525100	0.912500	0.695800
N691	N69	0.458300	0.593600	0.697200
N701	N70	0.672000	0.720800	0.663800
N711	N71	0.305900	0.621500	0.593500
N721	N72	0.355800	0.899700	0.567900
Mn131	Mn13	0.180660	0.876920	0.697900
Mn141	Mn14	0.545340	0.996110	0.751640
Mn151	Mn15	0.808430	0.709150	0.685440
Mn161	Mn16	0.195070	0.525520	0.587930
Mn171	Mn17	0.284490	0.997100	0.525730
N731	N73	0.065500	0.953900	0.715100
N741	N74	0.103900	0.828600	0.643300
N751	N75	0.235300	0.996800	0.671100
N761	N76	0.159500	0.754100	0.733900
N771	N77	0.462900	0.098700	0.715100
N781	N78	0.679500	0.042800	0.739500
N791	N79	0.613100	0.879600	0.784500
N801	N80	0.111600	0.638200	0.563000
N811	N81	0.168000	0.556200	0.651800
N821	N82	0.253200	0.396000	0.610500
N831	N83	0.164400	0.924500	0.539400
N841	N84	0.291200	0.104400	0.572600
N851	N85	0.196300	0.086600	0.485500
C731	C73	0.006900	0.983200	0.728100
C741	C74	0.061900	0.822100	0.613400
C751	C75	0.260500	0.068100	0.667200
C761	C76	0.408000	0.137200	0.696200
C771	C77	0.066100	0.701200	0.558500
C781	C78	0.101300	0.886800	0.544700
C791	C79	0.297800	0.143000	0.601800
W101	W10	0.893600	0.038840	0.755260
W111	W11	0.982940	0.818050	0.556040
W121	W12	0.303640	0.207250	0.661200
C801	C80	0.948900	0.932900	0.794400
C811	C81	0.856400	0.179800	0.761800
C821	C82	0.754700	0.043600	0.744700
C831	C83	0.004700	0.112200	0.782000
C841	C84	0.850300	0.917000	0.722800
C851	C85	0.898800	0.101100	0.696200
C861	C86	0.849600	0.052300	0.816400
C871	C87	0.904300	0.706100	0.531900
C881	C88	0.899100	0.779600	0.602500
C891	C89	0.969900	0.953000	0.581000
C901	C90	0.001800	0.811800	0.491700
C911	C91	0.865800	0.880600	0.528300
C921	C92	0.422800	0.243200	0.634100
C931	C93	0.356800	0.319600	0.698000
C941	C94	0.251200	0.196900	0.719800
C951	C95	0.164600	0.201900	0.644600
C961	C96	0.269300	0.331100	0.627800
N861	N86	0.984200	0.880300	0.815600
N871	N87	0.062700	0.153200	0.795000
N881	N88	0.829100	0.853700	0.705700
N891	N89	0.909800	0.136600	0.666300
N901	N90	0.864000	0.647400	0.518300
N911	N91	0.856200	0.755400	0.626500
N921	N92	0.967600	0.024000	0.593500
N931	N93	0.011500	0.809300	0.458200
N941	N94	0.484600	0.261700	0.619400
N951	N95	0.228100	0.188100	0.751300
N961	N96	0.092700	0.195500	0.632900
Mn181	Mn18	0.957810	0.170400	0.605920
W131	W13	0.532050	0.255290	0.871650
C971	C97	0.446500	0.337900	0.905500
C981	C98	0.486400	0.161000	0.914700
C991	C99	0.642100	0.288000	0.837800
C1001	C100	0.495400	0.361900	0.828100
C1011	C101	0.536600	0.148500	0.826300
C1021	C102	0.399200	0.229600	0.849000
C1031	C103	0.637800	0.168100	0.895200
C1041	C104	0.606100	0.347400	0.911000
N971	N97	0.401200	0.380000	0.923600
N981	N98	0.462600	0.110000	0.937100
N991	N99	0.700800	0.306500	0.821100
N1001	N100	0.474900	0.412500	0.804200
N1011	N101	0.541700	0.093600	0.802800
N1021	N102	0.328000	0.220800	0.836200
N1031	N103	0.694100	0.121500	0.906500
N1041	N104	0.644200	0.399700	0.932100
Mn191	Mn19	0.819340	0.376920	0.802100
Mn201	Mn20	0.454660	0.496110	0.748360
Mn211	Mn21	0.191570	0.209150	0.814560
Mn221	Mn22	0.804930	0.025520	0.912070
Mn231	Mn23	0.715510	0.497100	0.974270
N1051	N105	0.934500	0.453900	0.784900
N1061	N106	0.896100	0.328600	0.856700
N1071	N107	0.764700	0.496800	0.828900
N1081	N108	0.840500	0.254100	0.766100
N1091	N109	0.537100	0.598700	0.784900
N1101	N110	0.320500	0.542800	0.760500
N1111	N111	0.386900	0.379600	0.715500
N1121	N112	0.888400	0.138200	0.937000
N1131	N113	0.832000	0.056200	0.848200
N1141	N114	0.746800	0.896000	0.889500
N1151	N115	0.835600	0.424500	0.960600
N1161	N116	0.708800	0.604400	0.927400
N1171	N117	0.803700	0.586600	0.014500
C1051	C105	0.993100	0.483200	0.771900
C1061	C106	0.938100	0.322100	0.886600
C1071	C107	0.739500	0.568100	0.832800
C1081	C108	0.592000	0.637200	0.803800
C1091	C109	0.933900	0.201200	0.941500
C1101	C110	0.898700	0.386800	0.955300
C1111	C111	0.702200	0.643000	0.898200
W141	W14	0.106400	0.538840	0.744740
W151	W15	0.017060	0.318050	0.943960
W161	W16	0.696360	0.707250	0.838800
C1121	C112	0.051100	0.432900	0.705600
C1131	C113	0.143600	0.679800	0.738200
C1141	C114	0.245300	0.543600	0.755300
C1151	C115	0.995300	0.612200	0.718000
C1161	C116	0.149700	0.417000	0.777200
C1171	C117	0.101200	0.601100	0.803800
C1181	C118	0.150400	0.552300	0.683600
C1191	C119	0.095700	0.206100	0.968100
C1201	C120	0.100900	0.279600	0.897500
C1211	C121	0.030100	0.453000	0.919000
C1221	C122	0.998200	0.311800	0.008300
C1231	C123	0.134200	0.380600	0.971700
C1241	C124	0.577200	0.743200	0.865900
C1251	C125	0.643200	0.819600	0.802000
C1261	C126	0.748800	0.696900	0.780200
C1271	C127	0.835400	0.701900	0.855400
C1281	C128	0.730700	0.831100	0.872200
N1181	N118	0.015800	0.380300	0.684400
N1191	N119	0.937300	0.653200	0.705000
N1201	N120	0.170900	0.353700	0.794300
N1211	N121	0.090200	0.636600	0.833700
N1221	N122	0.136000	0.147400	0.981700
N1231	N123	0.143800	0.255400	0.873500
N1241	N124	0.032400	0.524000	0.906500
N1251	N125	0.988500	0.309300	0.041800
N1261	N126	0.515400	0.761700	0.880600
N1271	N127	0.771900	0.688100	0.748700
N1281	N128	0.907300	0.695500	0.867100
Mn241	Mn24	0.042190	0.670400	0.894080
