data_XUVGUQ01_ion_b_PM
_symmetry_space_group_name_H-M	'P1'
_cell_length_a	18.238200
_cell_length_b	18.238200
_cell_length_c	10.212000
_cell_angle_alpha	90.000000
_cell_angle_beta	90.000000
_cell_angle_gamma	123.628300
_symmetry_Int_Tables_number 1

loop_
_symmetry_equiv_pos_as_xyz
'x,y,z'

loop_
_atom_site_label
_atom_site_type_symbol
_atom_site_fract_x
_atom_site_fract_y
_atom_site_fract_z
Rb11	Rb1	0.092410	0.762090	0.960490
Ga21	Ga2	0.845820	0.007020	0.288940
Ga31	Ga3	0.154920	0.668660	0.299170
Ga41	Ga4	0.345580	0.008700	0.107300
Ga51	Ga5	0.962140	0.511680	0.132300
P61	P6	0.307680	0.817560	0.104600
P71	P7	0.342920	0.026240	0.816210
P81	P8	0.158830	0.976810	0.095680
P91	P9	0.932720	0.526560	0.834670
F101	F10	0.084480	0.616620	0.128800
F111	F11	0.966270	0.048410	0.331600
F121	F12	0.452910	0.010270	0.042200
O131	O13	0.012980	0.528100	0.792800
O141	O14	0.404060	0.848340	0.126400
O151	O15	0.253430	0.742610	0.199100
O161	O16	0.944150	0.559350	0.975500
O171	O17	0.428110	0.076310	0.735800
O181	O18	0.277660	0.784420	0.965300
O191	O19	0.848270	0.433130	0.820000
O201	O20	0.306930	0.927930	0.836800
O211	O21	0.167340	0.957320	0.951700
O221	O22	0.921110	0.589410	0.747400
O231	O23	0.245320	0.011320	0.164800
O241	O24	0.134370	0.044310	0.104800
O251	O25	0.274630	0.034110	0.743100
O261	O26	0.087550	0.886390	0.153800
O271	O27	0.361000	0.069340	0.952900
O281	O28	0.289430	0.888370	0.139000
O291	O29	0.817590	0.894790	0.246800
N301	N30	0.586930	0.180430	0.926400
H311	H31	0.625900	0.204500	0.861400
H321	H32	0.535200	0.137000	0.895100
H331	H33	0.605800	0.159200	0.986300
C341	C34	0.576930	0.248070	0.986900
H351	H35	0.608100	0.265700	0.069800
H361	H36	0.515000	0.222200	0.005100
C371	C37	0.610940	0.329060	0.902800
H381	H38	0.568100	0.313900	0.834000
H391	H39	0.664600	0.342000	0.860700
C401	C40	0.630800	0.413400	0.966300
H411	H41	0.573500	0.403500	0.982200
H421	H42	0.654100	0.414100	0.051900
C431	C43	0.687100	0.506700	0.919400
H441	H44	0.660400	0.520800	0.850200
H451	H45	0.746700	0.525500	0.896600
C461	C46	0.678600	0.535600	0.053300
H471	H47	0.646400	0.483200	0.107300
H481	H48	0.642000	0.558600	0.044600
C491	C49	0.759400	0.602400	0.128200
H501	H50	0.752400	0.648600	0.158400
H511	H51	0.764900	0.574300	0.204700
N521	N52	0.841100	0.642300	0.050000
H531	H53	0.835600	0.666400	0.977900
H541	H54	0.850400	0.601000	0.027700
H551	H55	0.886300	0.683700	0.097100
Rb581	Rb58	0.907590	0.237910	0.460490
Ga591	Ga59	0.154180	0.992980	0.788940
Ga601	Ga60	0.845080	0.331340	0.799170
Ga611	Ga61	0.654420	0.991300	0.607300
Ga621	Ga62	0.037860	0.488320	0.632300
P631	P63	0.692320	0.182440	0.604600
P641	P64	0.657080	0.973760	0.316210
P651	P65	0.841170	0.023190	0.595680
P661	P66	0.067280	0.473440	0.334670
F671	F67	0.915520	0.383380	0.628800
F681	F68	0.033730	0.951590	0.831600
F691	F69	0.547090	0.989730	0.542200
O701	O70	0.987020	0.471900	0.292800
O711	O71	0.595940	0.151660	0.626400
O721	O72	0.746570	0.257390	0.699100
O731	O73	0.055850	0.440650	0.475500
O741	O74	0.571890	0.923690	0.235800
O751	O75	0.722340	0.215580	0.465300
O761	O76	0.151730	0.566870	0.320000
O771	O77	0.693070	0.072070	0.336800
O781	O78	0.832660	0.042680	0.451700
O791	O79	0.078890	0.410590	0.247400
O801	O80	0.754680	0.988680	0.664800
O811	O81	0.865630	0.955690	0.604800
O821	O82	0.725370	0.965890	0.243100
O831	O83	0.912450	0.113610	0.653800
O841	O84	0.639000	0.930660	0.452900
O851	O85	0.710570	0.111630	0.639000
O861	O86	0.182410	0.105210	0.746800
N871	N87	0.413070	0.819570	0.426400
H881	H88	0.374100	0.795500	0.361400
H891	H89	0.464800	0.863000	0.395100
H901	H90	0.394200	0.840800	0.486300
C911	C91	0.423070	0.751930	0.486900
H921	H92	0.391900	0.734300	0.569800
H931	H93	0.485000	0.777800	0.505100
C941	C94	0.389060	0.670940	0.402800
H951	H95	0.431900	0.686100	0.334000
H961	H96	0.335400	0.658000	0.360700
C971	C97	0.369200	0.586600	0.466300
H981	H98	0.426500	0.596500	0.482200
H991	H99	0.345900	0.585900	0.551900
C1001	C100	0.312900	0.493300	0.419400
H1011	H101	0.339600	0.479200	0.350200
H1021	H102	0.253300	0.474500	0.396600
C1031	C103	0.321400	0.464400	0.553300
H1041	H104	0.353600	0.516800	0.607300
H1051	H105	0.358000	0.441400	0.544600
C1061	C106	0.240600	0.397600	0.628200
H1071	H107	0.247600	0.351400	0.658400
H1081	H108	0.235100	0.425700	0.704700
N1091	N109	0.158900	0.357700	0.550000
H1101	H110	0.164400	0.333600	0.477900
H1111	H111	0.149600	0.399000	0.527700
H1121	H112	0.113700	0.316300	0.597100
Rb1151	Rb115	0.237910	0.907590	0.460490
Ga1161	Ga116	0.992980	0.154180	0.788940
Ga1171	Ga117	0.331340	0.845080	0.799170
Ga1181	Ga118	0.991300	0.654420	0.607300
Ga1191	Ga119	0.488320	0.037860	0.632300
P1201	P120	0.182440	0.692320	0.604600
P1211	P121	0.973760	0.657080	0.316210
P1221	P122	0.023190	0.841170	0.595680
P1231	P123	0.473440	0.067280	0.334670
F1241	F124	0.383380	0.915520	0.628800
F1251	F125	0.951590	0.033730	0.831600
F1261	F126	0.989730	0.547090	0.542200
O1271	O127	0.471900	0.987020	0.292800
O1281	O128	0.151660	0.595940	0.626400
O1291	O129	0.257390	0.746570	0.699100
O1301	O130	0.440650	0.055850	0.475500
O1311	O131	0.923690	0.571890	0.235800
O1321	O132	0.215580	0.722340	0.465300
O1331	O133	0.566870	0.151730	0.320000
O1341	O134	0.072070	0.693070	0.336800
O1351	O135	0.042680	0.832660	0.451700
O1361	O136	0.410590	0.078890	0.247400
O1371	O137	0.988680	0.754680	0.664800
O1381	O138	0.955690	0.865630	0.604800
O1391	O139	0.965890	0.725370	0.243100
O1401	O140	0.113610	0.912450	0.653800
O1411	O141	0.930660	0.639000	0.452900
O1421	O142	0.111630	0.710570	0.639000
O1431	O143	0.105210	0.182410	0.746800
N1441	N144	0.819570	0.413070	0.426400
H1451	H145	0.795500	0.374100	0.361400
H1461	H146	0.863000	0.464800	0.395100
H1471	H147	0.840800	0.394200	0.486300
C1481	C148	0.751930	0.423070	0.486900
H1491	H149	0.734300	0.391900	0.569800
H1501	H150	0.777800	0.485000	0.505100
C1511	C151	0.670940	0.389060	0.402800
H1521	H152	0.686100	0.431900	0.334000
H1531	H153	0.658000	0.335400	0.360700
C1541	C154	0.586600	0.369200	0.466300
H1551	H155	0.596500	0.426500	0.482200
H1561	H156	0.585900	0.345900	0.551900
C1571	C157	0.493300	0.312900	0.419400
H1581	H158	0.479200	0.339600	0.350200
H1591	H159	0.474500	0.253300	0.396600
C1601	C160	0.464400	0.321400	0.553300
H1611	H161	0.516800	0.353600	0.607300
H1621	H162	0.441400	0.358000	0.544600
C1631	C163	0.397600	0.240600	0.628200
H1641	H164	0.351400	0.247600	0.658400
H1651	H165	0.425700	0.235100	0.704700
N1661	N166	0.357700	0.158900	0.550000
H1671	H167	0.333600	0.164400	0.477900
H1681	H168	0.399000	0.149600	0.527700
H1691	H169	0.316300	0.113700	0.597100
Rb1721	Rb172	0.762090	0.092410	0.960490
Ga1731	Ga173	0.007020	0.845820	0.288940
Ga1741	Ga174	0.668660	0.154920	0.299170
Ga1751	Ga175	0.008700	0.345580	0.107300
Ga1761	Ga176	0.511680	0.962140	0.132300
P1771	P177	0.817560	0.307680	0.104600
P1781	P178	0.026240	0.342920	0.816210
P1791	P179	0.976810	0.158830	0.095680
P1801	P180	0.526560	0.932720	0.834670
F1811	F181	0.616620	0.084480	0.128800
F1821	F182	0.048410	0.966270	0.331600
F1831	F183	0.010270	0.452910	0.042200
O1841	O184	0.528100	0.012980	0.792800
O1851	O185	0.848340	0.404060	0.126400
O1861	O186	0.742610	0.253430	0.199100
O1871	O187	0.559350	0.944150	0.975500
O1881	O188	0.076310	0.428110	0.735800
O1891	O189	0.784420	0.277660	0.965300
O1901	O190	0.433130	0.848270	0.820000
O1911	O191	0.927930	0.306930	0.836800
O1921	O192	0.957320	0.167340	0.951700
O1931	O193	0.589410	0.921110	0.747400
O1941	O194	0.011320	0.245320	0.164800
O1951	O195	0.044310	0.134370	0.104800
O1961	O196	0.034110	0.274630	0.743100
O1971	O197	0.886390	0.087550	0.153800
O1981	O198	0.069340	0.361000	0.952900
O1991	O199	0.888370	0.289430	0.139000
O2001	O200	0.894790	0.817590	0.246800
N2011	N201	0.180430	0.586930	0.926400
H2021	H202	0.204500	0.625900	0.861400
H2031	H203	0.137000	0.535200	0.895100
H2041	H204	0.159200	0.605800	0.986300
C2051	C205	0.248070	0.576930	0.986900
H2061	H206	0.265700	0.608100	0.069800
H2071	H207	0.222200	0.515000	0.005100
C2081	C208	0.329060	0.610940	0.902800
H2091	H209	0.313900	0.568100	0.834000
H2101	H210	0.342000	0.664600	0.860700
C2111	C211	0.413400	0.630800	0.966300
H2121	H212	0.403500	0.573500	0.982200
H2131	H213	0.414100	0.654100	0.051900
C2141	C214	0.506700	0.687100	0.919400
H2151	H215	0.520800	0.660400	0.850200
H2161	H216	0.525500	0.746700	0.896600
C2171	C217	0.535600	0.678600	0.053300
H2181	H218	0.483200	0.646400	0.107300
H2191	H219	0.558600	0.642000	0.044600
C2201	C220	0.602400	0.759400	0.128200
H2211	H221	0.648600	0.752400	0.158400
H2221	H222	0.574300	0.764900	0.204700
N2231	N223	0.642300	0.841100	0.050000
H2241	H224	0.666400	0.835600	0.977900
H2251	H225	0.601000	0.850400	0.027700
H2261	H226	0.683700	0.886300	0.097100
Ga2291	Ga229	0.050930	0.050930	0.212660
P2301	P230	0.872580	0.872580	0.162550
F2311	F231	0.146860	0.146860	0.308500
O2321	O232	0.954720	0.954720	0.106200
O2331	O233	0.813400	0.813400	0.047500
Ga2371	Ga237	0.949070	0.949070	0.712660
P2381	P238	0.127420	0.127420	0.662550
F2391	F239	0.853140	0.853140	0.808500
O2401	O240	0.045280	0.045280	0.606200
O2411	O241	0.186600	0.186600	0.547500
