data_XUVGUQ_charged_PM
_symmetry_space_group_name_H-M	'P1'
_cell_length_a	10.212000
_cell_length_b	17.229000
_cell_length_c	18.238200
_cell_angle_alpha	118.186000
_cell_angle_beta	90.000000
_cell_angle_gamma	90.000000
_symmetry_Int_Tables_number 1

loop_
_symmetry_equiv_pos_as_xyz
'x,y,z'

loop_
_atom_site_label
_atom_site_type_symbol
_atom_site_fract_x
_atom_site_fract_y
_atom_site_fract_z
Rb11	Rb1	0.039510	0.092410	0.330320
Rb21	Rb2	0.539510	0.907590	0.669680
Rb31	Rb3	0.539510	0.237910	0.330320
Rb41	Rb4	0.039510	0.762090	0.669680
Ga11	Ga1	0.211060	0.992980	0.838800
Ga21	Ga2	0.200830	0.845080	0.513740
Ga31	Ga3	0.892700	0.008700	0.663120
Ga41	Ga4	0.867700	0.962140	0.450460
Ga51	Ga5	0.787340	0.050930	0.000000
Ga61	Ga6	0.711060	0.007020	0.161200
Ga71	Ga7	0.700830	0.154920	0.486260
Ga81	Ga8	0.392700	0.991300	0.336880
Ga91	Ga9	0.367700	0.037860	0.549540
Ga101	Ga10	0.287340	0.949070	0.000000
Ga111	Ga11	0.711060	0.845820	0.838800
Ga121	Ga12	0.700830	0.668660	0.513740
Ga131	Ga13	0.392700	0.654420	0.663120
Ga141	Ga14	0.367700	0.488320	0.450460
Ga151	Ga15	0.211060	0.154180	0.161200
Ga161	Ga16	0.200830	0.331340	0.486260
Ga171	Ga17	0.892700	0.345580	0.336880
Ga181	Ga18	0.867700	0.511680	0.549540
P11	P1	0.895400	0.817560	0.509880
P21	P2	0.683790	0.973760	0.316680
P31	P3	0.904320	0.976810	0.817980
P41	P4	0.665330	0.067280	0.593840
P51	P5	0.337450	0.127420	0.000000
P61	P6	0.395400	0.182440	0.490120
P71	P7	0.183790	0.026240	0.683320
P81	P8	0.404320	0.023190	0.182020
P91	P9	0.165330	0.932720	0.406160
P101	P10	0.837450	0.872580	0.000000
P111	P11	0.395400	0.692320	0.509880
P121	P12	0.183790	0.342920	0.316680
P131	P13	0.404320	0.841170	0.817980
P141	P14	0.165330	0.526560	0.593840
P151	P15	0.895400	0.307680	0.490120
P161	P16	0.683790	0.657080	0.683320
P171	P17	0.904320	0.158830	0.182020
P181	P18	0.665330	0.473440	0.406160
H11	H1	0.535530	0.158880	0.999220
H21	H2	0.035530	0.841120	0.000780
O11	O1	0.707200	0.987020	0.515120
O21	O2	0.873600	0.848340	0.444280
O31	O3	0.300900	0.746570	0.489180
O41	O4	0.024500	0.944150	0.384800
O51	O5	0.764200	0.923690	0.351800
O61	O6	0.034700	0.784420	0.506760
O71	O7	0.180000	0.848270	0.415140
O81	O8	0.663200	0.072070	0.379000
O91	O9	0.048300	0.957320	0.789980
O101	O10	0.752600	0.078890	0.668300
O111	O11	0.835200	0.011320	0.766000
O121	O12	0.895200	0.044310	0.909940
O131	O13	0.256900	0.034110	0.759480
O141	O14	0.346200	0.912450	0.798840
O151	O15	0.047100	0.069340	0.708340
O161	O16	0.861000	0.888370	0.598940
O171	O17	0.893800	0.954720	0.000000
O181	O18	0.253200	0.105210	0.922800
O191	O19	0.452500	0.186600	0.000000
O201	O20	0.207200	0.012980	0.484880
O211	O21	0.373600	0.151660	0.555720
O221	O22	0.800900	0.253430	0.510820
O231	O23	0.524500	0.055850	0.615200
O241	O24	0.264200	0.076310	0.648200
O251	O25	0.534700	0.215580	0.493240
O261	O26	0.680000	0.151730	0.584860
O271	O27	0.163200	0.927930	0.621000
O281	O28	0.548300	0.042680	0.210020
O291	O29	0.252600	0.921110	0.331700
O301	O30	0.335200	0.988680	0.234000
O311	O31	0.395200	0.955690	0.090060
O321	O32	0.756900	0.965890	0.240520
O331	O33	0.846200	0.087550	0.201160
O341	O34	0.547100	0.930660	0.291660
O351	O35	0.361000	0.111630	0.401060
O361	O36	0.393800	0.045280	0.000000
O371	O37	0.753200	0.894790	0.077200
O381	O38	0.952500	0.813400	0.000000
O391	O39	0.207200	0.528100	0.515120
O401	O40	0.373600	0.595940	0.444280
O411	O41	0.800900	0.742610	0.489180
O421	O42	0.524500	0.440650	0.384800
O431	O43	0.264200	0.428110	0.351800
O441	O44	0.534700	0.722340	0.506760
O451	O45	0.680000	0.566870	0.415140
O461	O46	0.163200	0.306930	0.379000
O471	O47	0.548300	0.832660	0.789980
O481	O48	0.252600	0.589410	0.668300
O491	O49	0.335200	0.754680	0.766000
O501	O50	0.395200	0.865630	0.909940
O511	O51	0.756900	0.725370	0.759480
O521	O52	0.846200	0.886390	0.798840
O531	O53	0.547100	0.639000	0.708340
O541	O54	0.361000	0.710570	0.598940
O551	O55	0.753200	0.817590	0.922800
O561	O56	0.707200	0.471900	0.484880
O571	O57	0.873600	0.404060	0.555720
O581	O58	0.300900	0.257390	0.510820
O591	O59	0.024500	0.559350	0.615200
O601	O60	0.764200	0.571890	0.648200
O611	O61	0.034700	0.277660	0.493240
O621	O62	0.180000	0.433130	0.584860
O631	O63	0.663200	0.693070	0.621000
O641	O64	0.048300	0.167340	0.210020
O651	O65	0.752600	0.410590	0.331700
O661	O66	0.835200	0.245320	0.234000
O671	O67	0.895200	0.134370	0.090060
O681	O68	0.256900	0.274630	0.240520
O691	O69	0.346200	0.113610	0.201160
O701	O70	0.047100	0.361000	0.291660
O711	O71	0.861000	0.289430	0.401060
O721	O72	0.253200	0.182410	0.077200
F11	F1	0.371200	0.915520	0.532140
F21	F2	0.168400	0.951590	0.917860
F31	F3	0.957800	0.010270	0.557360
F41	F4	0.691500	0.146860	0.000000
F51	F5	0.871200	0.084480	0.467860
F61	F6	0.668400	0.048410	0.082140
F71	F7	0.457800	0.989730	0.442640
F81	F8	0.191500	0.853140	0.000000
F91	F9	0.871200	0.616620	0.532140
F101	F10	0.668400	0.966270	0.917860
F111	F11	0.457800	0.547090	0.557360
F121	F12	0.371200	0.383380	0.467860
F131	F13	0.168400	0.033730	0.082140
F141	F14	0.957800	0.452910	0.442640
H31	H3	0.930200	0.265700	0.657600
H41	H4	0.994900	0.222200	0.707200
H51	H5	0.166000	0.313900	0.745800
H61	H6	0.139300	0.342000	0.677400
H71	H7	0.017800	0.403500	0.830000
H81	H8	0.948100	0.414100	0.760000
H91	H9	0.149800	0.520800	0.860400
H101	H10	0.103400	0.525500	0.778800
H111	H11	0.892700	0.483200	0.836800
H121	H12	0.955400	0.558600	0.916600
H131	H13	0.841600	0.648600	0.896200
H141	H14	0.795300	0.574300	0.809400
H151	H15	0.052660	0.117300	0.585680
H161	H16	0.036340	0.187100	0.543100
H171	H17	0.175300	0.190500	0.596760
H181	H18	0.986260	0.592900	0.744360
H191	H19	0.890340	0.685830	0.790870
H201	H20	0.027980	0.677790	0.840170
C11	C1	0.013100	0.248070	0.671170
C21	C2	0.097200	0.329060	0.718160
C31	C3	0.033700	0.413400	0.782600
C41	C4	0.080600	0.506700	0.819600
C51	C5	0.946700	0.535600	0.857000
C61	C6	0.871800	0.602400	0.843000
N11	N1	0.073600	0.180430	0.593500
N21	N2	0.950000	0.642300	0.801200
H211	H21	0.430200	0.734300	0.342400
H221	H22	0.494900	0.777800	0.292800
H231	H23	0.666000	0.686100	0.254200
H241	H24	0.639300	0.658000	0.322600
H251	H25	0.517800	0.596500	0.170000
H261	H26	0.448100	0.585900	0.240000
H271	H27	0.649800	0.479200	0.139600
H281	H28	0.603400	0.474500	0.221200
H291	H29	0.392700	0.516800	0.163200
H301	H30	0.455400	0.441400	0.083400
H311	H31	0.341600	0.351400	0.103800
H321	H32	0.295300	0.425700	0.190600
H331	H33	0.552660	0.882700	0.414320
H341	H34	0.536340	0.812900	0.456900
H351	H35	0.675300	0.809500	0.403240
H361	H36	0.486260	0.407100	0.255640
H371	H37	0.390340	0.314170	0.209130
H381	H38	0.527980	0.322210	0.159830
C71	C7	0.513100	0.751930	0.328830
C81	C8	0.597200	0.670940	0.281840
C91	C9	0.533700	0.586600	0.217400
C101	C10	0.580600	0.493300	0.180400
C111	C11	0.446700	0.464400	0.143000
C121	C12	0.371800	0.397600	0.157000
N31	N3	0.573600	0.819570	0.406500
N41	N4	0.450000	0.357700	0.198800
H391	H39	0.430200	0.391900	0.657600
H401	H40	0.494900	0.485000	0.707200
H411	H41	0.666000	0.431900	0.745800
H421	H42	0.639300	0.335400	0.677400
H431	H43	0.517800	0.426500	0.830000
H441	H44	0.448100	0.345900	0.760000
H451	H45	0.649800	0.339600	0.860400
H461	H46	0.603400	0.253300	0.778800
H471	H47	0.392700	0.353600	0.836800
H481	H48	0.455400	0.358000	0.916600
H491	H49	0.341600	0.247600	0.896200
H501	H50	0.295300	0.235100	0.809400
H511	H51	0.552660	0.468380	0.585680
H521	H52	0.536340	0.356000	0.543100
H531	H53	0.675300	0.406260	0.596760
H541	H54	0.486260	0.151460	0.744360
H551	H55	0.390340	0.105040	0.790870
H561	H56	0.527980	0.162380	0.840170
C131	C13	0.513100	0.423100	0.671170
C141	C14	0.597200	0.389100	0.718160
C151	C15	0.533700	0.369200	0.782600
C161	C16	0.580600	0.312900	0.819600
C171	C17	0.446700	0.321400	0.857000
C181	C18	0.371800	0.240600	0.843000
N51	N5	0.573600	0.413070	0.593500
N61	N6	0.450000	0.158900	0.801200
H571	H57	0.930200	0.608100	0.342400
H581	H58	0.994900	0.515000	0.292800
H591	H59	0.166000	0.568100	0.254200
H601	H60	0.139300	0.664600	0.322600
H611	H61	0.017800	0.573500	0.170000
H621	H62	0.948100	0.654100	0.240000
H631	H63	0.149800	0.660400	0.139600
H641	H64	0.103400	0.746700	0.221200
H651	H65	0.892700	0.646400	0.163200
H661	H66	0.955400	0.642000	0.083400
H671	H67	0.841600	0.752400	0.103800
H681	H68	0.795300	0.764900	0.190600
H691	H69	0.052660	0.531620	0.414320
H701	H70	0.036340	0.644000	0.456900
H711	H71	0.175300	0.593740	0.403240
H721	H72	0.986260	0.848540	0.255640
H731	H73	0.890340	0.894960	0.209130
H741	H74	0.027980	0.837620	0.159830
C191	C19	0.013100	0.576900	0.328830
C201	C20	0.097200	0.610900	0.281840
C211	C21	0.033700	0.630800	0.217400
C221	C22	0.080600	0.687100	0.180400
C231	C23	0.946700	0.678600	0.143000
C241	C24	0.871800	0.759400	0.157000
N71	N7	0.073600	0.586930	0.406500
N81	N8	0.950000	0.841100	0.198800
