data_XUWFUR_clean_PM
_symmetry_space_group_name_H-M	'P1'
_cell_length_a	29.886000
_cell_length_b	28.350000
_cell_length_c	15.271900
_cell_angle_alpha	90.000000
_cell_angle_beta	90.000000
_cell_angle_gamma	90.000000
_symmetry_Int_Tables_number 1

loop_
_symmetry_equiv_pos_as_xyz
'x,y,z'

loop_
_atom_site_label
_atom_site_type_symbol
_atom_site_fract_x
_atom_site_fract_y
_atom_site_fract_z
Cu11	Cu1	0.816310	0.195530	0.942960
Cu21	Cu2	0.184270	0.164100	0.861570
Cu31	Cu3	0.365380	0.478270	0.626190
N11	N1	0.883300	0.191300	0.924800
N21	N2	0.117600	0.167200	0.879200
N31	N3	0.210000	0.102300	0.896600
N41	N4	0.290400	0.868200	0.927400
N51	N5	0.218500	0.214000	0.800400
N61	N6	0.331300	0.416600	0.642700
N71	N7	0.328500	0.535100	0.591400
N81	N8	0.218000	0.749500	0.481900
N91	N9	0.422200	0.476900	0.545300
N101	N10	0.601100	0.507600	0.242700
C11	C1	0.902300	0.177000	0.849500
H11	H1	0.883400	0.169300	0.803200
C21	C2	0.947700	0.173000	0.836400
H21	H2	0.958900	0.163800	0.782200
C31	C3	0.975500	0.182500	0.903600
C41	C4	0.956500	0.196900	0.983800
H31	H3	0.974600	0.203900	0.031600
C51	C5	0.910600	0.200400	0.990100
H41	H4	0.898300	0.209600	0.043400
C61	C6	0.091300	0.172600	0.809100
H51	H5	0.104200	0.172300	0.753700
C71	C7	0.045800	0.178400	0.816400
H61	H6	0.028600	0.182800	0.766200
C81	C8	0.025400	0.177800	0.897800
C91	C9	0.051400	0.170800	0.968400
H71	H7	0.038700	0.169200	0.024000
C101	C10	0.096600	0.166300	0.957700
H81	H8	0.114100	0.162200	0.007600
C111	C11	0.183200	0.068800	0.930100
H91	H9	0.154000	0.076800	0.945100
C121	C12	0.198000	0.020800	0.943800
H101	H10	0.180000	0.998300	0.970700
C131	C13	0.241200	0.010300	0.913800
C141	C14	0.268100	0.045000	0.882900
H111	H11	0.297600	0.038700	0.867800
C151	C15	0.250900	0.089900	0.874100
H121	H12	0.269400	0.113000	0.850800
C161	C16	0.247100	0.877000	0.927900
H131	H13	0.227200	0.851900	0.931600
C171	C17	0.230400	0.922000	0.923300
H141	H14	0.199600	0.926700	0.923400
C181	C18	0.258200	0.959500	0.918500
C191	C19	0.303100	0.951600	0.921600
H151	H15	0.323100	0.976700	0.920500
C201	C20	0.318200	0.906600	0.926300
H161	H16	0.348900	0.901500	0.928900
C211	C21	0.262200	0.218900	0.805400
H171	H17	0.278200	0.195300	0.833900
C221	C22	0.285800	0.256400	0.771400
H181	H18	0.316900	0.257400	0.775600
C231	C23	0.262900	0.292400	0.731300
C241	C24	0.216100	0.288400	0.729500
H191	H19	0.198800	0.312500	0.706200
C251	C25	0.196400	0.249300	0.761800
H201	H20	0.165500	0.246700	0.756900
C261	C26	0.352100	0.376000	0.652000
H211	H21	0.382500	0.374700	0.639400
C271	C27	0.331300	0.335400	0.679400
H221	H22	0.347700	0.307600	0.684700
C281	C28	0.286200	0.335600	0.699100
C291	C29	0.264100	0.377800	0.686400
H231	H23	0.233600	0.379900	0.697500
C301	C30	0.286700	0.416300	0.657800
H241	H24	0.270700	0.444000	0.648100
C311	C31	0.345000	0.566600	0.535700
H251	H25	0.372000	0.559500	0.508200
C321	C32	0.324600	0.609400	0.515700
H261	H26	0.339300	0.630900	0.479800
C331	C33	0.283600	0.620200	0.547900
C341	C34	0.267100	0.588400	0.604800
H271	H27	0.240200	0.594900	0.633000
C351	C35	0.289200	0.545600	0.623000
H281	H28	0.275100	0.523800	0.659200
C361	C36	0.261100	0.745400	0.473500
H291	H29	0.277600	0.771100	0.453700
C371	C37	0.283500	0.703300	0.493500
H301	H30	0.314200	0.701100	0.484200
C381	C38	0.260800	0.665500	0.526400
C391	C39	0.217000	0.670600	0.536300
H311	H31	0.200100	0.646300	0.560400
C401	C40	0.196300	0.712800	0.510100
H321	H32	0.165200	0.714500	0.513100
C411	C41	0.432400	0.445100	0.487000
H331	H33	0.415200	0.417800	0.486100
C421	C42	0.466300	0.448500	0.426900
H341	H34	0.470100	0.425300	0.384600
C431	C43	0.494600	0.486700	0.429900
C441	C44	0.486300	0.518900	0.494000
H351	H35	0.505700	0.544200	0.501400
C451	C45	0.450100	0.514700	0.547000
H361	H36	0.444200	0.538900	0.586500
C461	C46	0.586400	0.463300	0.262500
H371	H37	0.599800	0.437500	0.235300
C471	C47	0.552100	0.455400	0.322300
H381	H38	0.542400	0.424800	0.333300
C481	C48	0.532200	0.492600	0.365400
C491	C49	0.548900	0.537000	0.346300
H391	H39	0.537000	0.563200	0.374300
C501	C50	0.582500	0.542700	0.287400
H401	H40	0.593100	0.573100	0.277700
Cu41	Cu4	0.183690	0.804470	0.442960
Cu51	Cu5	0.815730	0.835900	0.361570
Cu61	Cu6	0.634620	0.521730	0.126190
N111	N11	0.116700	0.808700	0.424800
N121	N12	0.882400	0.832800	0.379200
N131	N13	0.790000	0.897700	0.396600
N141	N14	0.709600	0.131800	0.427400
N151	N15	0.781500	0.786000	0.300400
N161	N16	0.668700	0.583400	0.142700
N171	N17	0.671500	0.464900	0.091400
N181	N18	0.782000	0.250500	0.981900
N191	N19	0.577800	0.523100	0.045300
N201	N20	0.398900	0.492400	0.742700
C511	C51	0.097700	0.823000	0.349500
H411	H41	0.116600	0.830700	0.303200
C521	C52	0.052300	0.827000	0.336400
H421	H42	0.041100	0.836200	0.282200
C531	C53	0.024500	0.817500	0.403600
C541	C54	0.043500	0.803100	0.483800
H431	H43	0.025400	0.796100	0.531600
C551	C55	0.089400	0.799600	0.490100
H441	H44	0.101700	0.790400	0.543400
C561	C56	0.908700	0.827400	0.309100
H451	H45	0.895800	0.827700	0.253700
C571	C57	0.954200	0.821600	0.316400
H461	H46	0.971400	0.817200	0.266200
C581	C58	0.974600	0.822200	0.397800
C591	C59	0.948600	0.829200	0.468400
H471	H47	0.961300	0.830800	0.524000
C601	C60	0.903400	0.833700	0.457700
H481	H48	0.885900	0.837800	0.507600
C611	C61	0.816800	0.931200	0.430100
H491	H49	0.846000	0.923200	0.445100
C621	C62	0.802000	0.979200	0.443800
H501	H50	0.820000	0.001700	0.470700
C631	C63	0.758800	0.989700	0.413800
C641	C64	0.731900	0.955000	0.382900
H511	H51	0.702400	0.961300	0.367800
C651	C65	0.749100	0.910100	0.374100
H521	H52	0.730600	0.887000	0.350800
C661	C66	0.752900	0.123000	0.427900
H531	H53	0.772800	0.148100	0.431600
C671	C67	0.769600	0.078000	0.423300
H541	H54	0.800400	0.073300	0.423400
C681	C68	0.741800	0.040500	0.418500
C691	C69	0.696900	0.048400	0.421600
H551	H55	0.676900	0.023300	0.420500
C701	C70	0.681800	0.093400	0.426300
H561	H56	0.651100	0.098500	0.428900
C711	C71	0.737800	0.781100	0.305400
H571	H57	0.721800	0.804700	0.333900
C721	C72	0.714200	0.743600	0.271400
H581	H58	0.683100	0.742600	0.275600
C731	C73	0.737100	0.707600	0.231300
C741	C74	0.783900	0.711600	0.229500
H591	H59	0.801200	0.687500	0.206200
C751	C75	0.803600	0.750700	0.261800
H601	H60	0.834500	0.753300	0.256900
C761	C76	0.647900	0.624000	0.152000
H611	H61	0.617500	0.625300	0.139400
C771	C77	0.668700	0.664600	0.179400
H621	H62	0.652300	0.692400	0.184700
C781	C78	0.713800	0.664400	0.199100
C791	C79	0.735900	0.622200	0.186400
H631	H63	0.766400	0.620100	0.197500
C801	C80	0.713300	0.583700	0.157800
H641	H64	0.729300	0.556000	0.148100
C811	C81	0.655000	0.433400	0.035700
H651	H65	0.628000	0.440500	0.008200
C821	C82	0.675400	0.390600	0.015700
H661	H66	0.660700	0.369100	0.979800
C831	C83	0.716400	0.379800	0.047900
C841	C84	0.732900	0.411600	0.104800
H671	H67	0.759800	0.405100	0.133000
C851	C85	0.710800	0.454400	0.123000
H681	H68	0.724900	0.476200	0.159200
C861	C86	0.738900	0.254600	0.973500
H691	H69	0.722400	0.228900	0.953700
C871	C87	0.716500	0.296700	0.993500
H701	H70	0.685800	0.298900	0.984200
C881	C88	0.739200	0.334500	0.026400
C891	C89	0.783000	0.329400	0.036300
H711	H71	0.799900	0.353700	0.060400
C901	C90	0.803700	0.287200	0.010100
H721	H72	0.834800	0.285500	0.013100
C911	C91	0.567600	0.554900	0.987000
H731	H73	0.584800	0.582200	0.986100
C921	C92	0.533700	0.551500	0.926900
H741	H74	0.529900	0.574700	0.884600
C931	C93	0.505400	0.513300	0.929900
C941	C94	0.513700	0.481100	0.994000
H751	H75	0.494300	0.455800	0.001400
C951	C95	0.549900	0.485300	0.047000
H761	H76	0.555800	0.461100	0.086500
C961	C96	0.413600	0.536700	0.762500
H771	H77	0.400200	0.562500	0.735300
C971	C97	0.447900	0.544600	0.822300
H781	H78	0.457600	0.575200	0.833300
C981	C98	0.467800	0.507400	0.865400
C991	C99	0.451100	0.463000	0.846300
H791	H79	0.463000	0.436800	0.874300
C1001	C100	0.417500	0.457300	0.787400
H801	H80	0.406900	0.426900	0.777700
Cu71	Cu7	0.316310	0.804470	0.942960
Cu81	Cu8	0.684270	0.835900	0.861570
Cu91	Cu9	0.865380	0.521730	0.626190
N211	N21	0.383300	0.808700	0.924800
N221	N22	0.617600	0.832800	0.879200
N231	N23	0.710000	0.897700	0.896600
N241	N24	0.790400	0.131800	0.927400
N251	N25	0.718500	0.786000	0.800400
N261	N26	0.831300	0.583400	0.642700
N271	N27	0.828500	0.464900	0.591400
N281	N28	0.718000	0.250500	0.481900
N291	N29	0.922200	0.523100	0.545300
N301	N30	0.101100	0.492400	0.242700
C1011	C101	0.402300	0.823000	0.849500
H811	H81	0.383400	0.830700	0.803200
C1021	C102	0.447700	0.827000	0.836400
H821	H82	0.458900	0.836200	0.782200
C1031	C103	0.475500	0.817500	0.903600
C1041	C104	0.456500	0.803100	0.983800
H831	H83	0.474600	0.796100	0.031600
C1051	C105	0.410600	0.799600	0.990100
H841	H84	0.398300	0.790400	0.043400
C1061	C106	0.591300	0.827400	0.809100
H851	H85	0.604200	0.827700	0.753700
C1071	C107	0.545800	0.821600	0.816400
H861	H86	0.528600	0.817200	0.766200
C1081	C108	0.525400	0.822200	0.897800
C1091	C109	0.551400	0.829200	0.968400
H871	H87	0.538700	0.830800	0.024000
C1101	C110	0.596600	0.833700	0.957700
H881	H88	0.614100	0.837800	0.007600
C1111	C111	0.683200	0.931200	0.930100
H891	H89	0.654000	0.923200	0.945100
C1121	C112	0.698000	0.979200	0.943800
H901	H90	0.680000	0.001700	0.970700
C1131	C113	0.741200	0.989700	0.913800
C1141	C114	0.768100	0.955000	0.882900
H911	H91	0.797600	0.961300	0.867800
C1151	C115	0.750900	0.910100	0.874100
H921	H92	0.769400	0.887000	0.850800
C1161	C116	0.747100	0.123000	0.927900
H931	H93	0.727200	0.148100	0.931600
C1171	C117	0.730400	0.078000	0.923300
H941	H94	0.699600	0.073300	0.923400
C1181	C118	0.758200	0.040500	0.918500
C1191	C119	0.803100	0.048400	0.921600
H951	H95	0.823100	0.023300	0.920500
C1201	C120	0.818200	0.093400	0.926300
H961	H96	0.848900	0.098500	0.928900
C1211	C121	0.762200	0.781100	0.805400
H971	H97	0.778200	0.804700	0.833900
C1221	C122	0.785800	0.743600	0.771400
H981	H98	0.816900	0.742600	0.775600
C1231	C123	0.762900	0.707600	0.731300
C1241	C124	0.716100	0.711600	0.729500
H991	H99	0.698800	0.687500	0.706200
C1251	C125	0.696400	0.750700	0.761800
H1001	H100	0.665500	0.753300	0.756900
C1261	C126	0.852100	0.624000	0.652000
H1011	H101	0.882500	0.625300	0.639400
C1271	C127	0.831300	0.664600	0.679400
H1021	H102	0.847700	0.692400	0.684700
C1281	C128	0.786200	0.664400	0.699100
C1291	C129	0.764100	0.622200	0.686400
H1031	H103	0.733600	0.620100	0.697500
C1301	C130	0.786700	0.583700	0.657800
H1041	H104	0.770700	0.556000	0.648100
C1311	C131	0.845000	0.433400	0.535700
H1051	H105	0.872000	0.440500	0.508200
C1321	C132	0.824600	0.390600	0.515700
H1061	H106	0.839300	0.369100	0.479800
C1331	C133	0.783600	0.379800	0.547900
C1341	C134	0.767100	0.411600	0.604800
H1071	H107	0.740200	0.405100	0.633000
C1351	C135	0.789200	0.454400	0.623000
H1081	H108	0.775100	0.476200	0.659200
C1361	C136	0.761100	0.254600	0.473500
H1091	H109	0.777600	0.228900	0.453700
C1371	C137	0.783500	0.296700	0.493500
H1101	H110	0.814200	0.298900	0.484200
C1381	C138	0.760800	0.334500	0.526400
C1391	C139	0.717000	0.329400	0.536300
H1111	H111	0.700100	0.353700	0.560400
C1401	C140	0.696300	0.287200	0.510100
H1121	H112	0.665200	0.285500	0.513100
C1411	C141	0.932400	0.554900	0.487000
H1131	H113	0.915200	0.582200	0.486100
C1421	C142	0.966300	0.551500	0.426900
H1141	H114	0.970100	0.574700	0.384600
C1431	C143	0.994600	0.513300	0.429900
C1441	C144	0.986300	0.481100	0.494000
H1151	H115	0.005700	0.455800	0.501400
C1451	C145	0.950100	0.485300	0.547000
H1161	H116	0.944200	0.461100	0.586500
C1461	C146	0.086400	0.536700	0.262500
H1171	H117	0.099800	0.562500	0.235300
C1471	C147	0.052100	0.544600	0.322300
H1181	H118	0.042400	0.575200	0.333300
C1481	C148	0.032200	0.507400	0.365400
C1491	C149	0.048900	0.463000	0.346300
H1191	H119	0.037000	0.436800	0.374300
C1501	C150	0.082500	0.457300	0.287400
H1201	H120	0.093100	0.426900	0.277700
Cu101	Cu10	0.683690	0.195530	0.442960
Cu111	Cu11	0.315730	0.164100	0.361570
Cu121	Cu12	0.134620	0.478270	0.126190
N311	N31	0.616700	0.191300	0.424800
N321	N32	0.382400	0.167200	0.379200
N331	N33	0.290000	0.102300	0.396600
N341	N34	0.209600	0.868200	0.427400
N351	N35	0.281500	0.214000	0.300400
N361	N36	0.168700	0.416600	0.142700
N371	N37	0.171500	0.535100	0.091400
N381	N38	0.282000	0.749500	0.981900
N391	N39	0.077800	0.476900	0.045300
N401	N40	0.898900	0.507600	0.742700
C1511	C151	0.597700	0.177000	0.349500
H1211	H121	0.616600	0.169300	0.303200
C1521	C152	0.552300	0.173000	0.336400
H1221	H122	0.541100	0.163800	0.282200
C1531	C153	0.524500	0.182500	0.403600
C1541	C154	0.543500	0.196900	0.483800
H1231	H123	0.525400	0.203900	0.531600
C1551	C155	0.589400	0.200400	0.490100
H1241	H124	0.601700	0.209600	0.543400
C1561	C156	0.408700	0.172600	0.309100
H1251	H125	0.395800	0.172300	0.253700
C1571	C157	0.454200	0.178400	0.316400
H1261	H126	0.471400	0.182800	0.266200
C1581	C158	0.474600	0.177800	0.397800
C1591	C159	0.448600	0.170800	0.468400
H1271	H127	0.461300	0.169200	0.524000
C1601	C160	0.403400	0.166300	0.457700
H1281	H128	0.385900	0.162200	0.507600
C1611	C161	0.316800	0.068800	0.430100
H1291	H129	0.346000	0.076800	0.445100
C1621	C162	0.302000	0.020800	0.443800
H1301	H130	0.320000	0.998300	0.470700
C1631	C163	0.258800	0.010300	0.413800
C1641	C164	0.231900	0.045000	0.382900
H1311	H131	0.202400	0.038700	0.367800
C1651	C165	0.249100	0.089900	0.374100
H1321	H132	0.230600	0.113000	0.350800
C1661	C166	0.252900	0.877000	0.427900
H1331	H133	0.272800	0.851900	0.431600
C1671	C167	0.269600	0.922000	0.423300
H1341	H134	0.300400	0.926700	0.423400
C1681	C168	0.241800	0.959500	0.418500
C1691	C169	0.196900	0.951600	0.421600
H1351	H135	0.176900	0.976700	0.420500
C1701	C170	0.181800	0.906600	0.426300
H1361	H136	0.151100	0.901500	0.428900
C1711	C171	0.237800	0.218900	0.305400
H1371	H137	0.221800	0.195300	0.333900
C1721	C172	0.214200	0.256400	0.271400
H1381	H138	0.183100	0.257400	0.275600
C1731	C173	0.237100	0.292400	0.231300
C1741	C174	0.283900	0.288400	0.229500
H1391	H139	0.301200	0.312500	0.206200
C1751	C175	0.303600	0.249300	0.261800
H1401	H140	0.334500	0.246700	0.256900
C1761	C176	0.147900	0.376000	0.152000
H1411	H141	0.117500	0.374700	0.139400
C1771	C177	0.168700	0.335400	0.179400
H1421	H142	0.152300	0.307600	0.184700
C1781	C178	0.213800	0.335600	0.199100
C1791	C179	0.235900	0.377800	0.186400
H1431	H143	0.266400	0.379900	0.197500
C1801	C180	0.213300	0.416300	0.157800
H1441	H144	0.229300	0.444000	0.148100
C1811	C181	0.155000	0.566600	0.035700
H1451	H145	0.128000	0.559500	0.008200
C1821	C182	0.175400	0.609400	0.015700
H1461	H146	0.160700	0.630900	0.979800
C1831	C183	0.216400	0.620200	0.047900
C1841	C184	0.232900	0.588400	0.104800
H1471	H147	0.259800	0.594900	0.133000
C1851	C185	0.210800	0.545600	0.123000
H1481	H148	0.224900	0.523800	0.159200
C1861	C186	0.238900	0.745400	0.973500
H1491	H149	0.222400	0.771100	0.953700
C1871	C187	0.216500	0.703300	0.993500
H1501	H150	0.185800	0.701100	0.984200
C1881	C188	0.239200	0.665500	0.026400
C1891	C189	0.283000	0.670600	0.036300
H1511	H151	0.299900	0.646300	0.060400
C1901	C190	0.303700	0.712800	0.010100
H1521	H152	0.334800	0.714500	0.013100
C1911	C191	0.067600	0.445100	0.987000
H1531	H153	0.084800	0.417800	0.986100
C1921	C192	0.033700	0.448500	0.926900
H1541	H154	0.029900	0.425300	0.884600
C1931	C193	0.005400	0.486700	0.929900
C1941	C194	0.013700	0.518900	0.994000
H1551	H155	0.994300	0.544200	0.001400
C1951	C195	0.049900	0.514700	0.047000
H1561	H156	0.055800	0.538900	0.086500
C1961	C196	0.913600	0.463300	0.762500
H1571	H157	0.900200	0.437500	0.735300
C1971	C197	0.947900	0.455400	0.822300
H1581	H158	0.957600	0.424800	0.833300
C1981	C198	0.967800	0.492600	0.865400
C1991	C199	0.951100	0.537000	0.846300
H1591	H159	0.963000	0.563200	0.874300
C2001	C200	0.917500	0.542700	0.787400
H1601	H160	0.906900	0.573100	0.777700
Cu131	Cu13	0.670430	0.331580	0.320500
Cu141	Cu14	0.306520	0.313300	0.457300
Cu151	Cu15	0.133960	0.984420	0.657990
N411	N41	0.605600	0.325200	0.351500
N421	N42	0.372000	0.310100	0.430900
N431	N43	0.281200	0.375700	0.429900
N441	N44	0.195900	0.604700	0.349200
N451	N45	0.274100	0.259900	0.506900
N461	N46	0.168100	0.045700	0.628800
N471	N47	0.104900	0.992700	0.780900
N481	N48	0.923300	0.013500	0.079800
N491	N49	0.168900	0.923100	0.654600
N501	N50	0.293700	0.719300	0.764600
C2011	C201	0.576800	0.316000	0.285800
H1611	H161	0.587900	0.314000	0.228900
C2021	C202	0.530700	0.309300	0.299700
H1621	H162	0.512400	0.300000	0.253600
C2031	C203	0.512600	0.316600	0.382500
C2041	C204	0.542200	0.328200	0.448600
H1631	H163	0.531800	0.332700	0.505300
C2051	C205	0.586800	0.333000	0.430900
H1641	H164	0.605500	0.342300	0.476400
C2061	C206	0.388800	0.323300	0.351400
H1651	H165	0.368900	0.331700	0.307400
C2071	C207	0.434100	0.324600	0.333200
H1661	H166	0.443900	0.333400	0.277800
C2081	C208	0.464600	0.313000	0.397100
C2091	C209	0.447700	0.298300	0.478200
H1671	H167	0.467200	0.289600	0.522900
C2101	C210	0.402600	0.296800	0.491500
H1681	H168	0.392200	0.285900	0.545300
C2111	C211	0.307100	0.413800	0.418700
H1691	H169	0.337800	0.409500	0.424500
C2121	C212	0.293200	0.456700	0.400300
H1701	H170	0.313500	0.480400	0.386700
C2131	C213	0.246300	0.466000	0.401700
C2141	C214	0.219200	0.430100	0.419900
H1711	H171	0.188400	0.434400	0.422300
C2151	C215	0.237800	0.386500	0.435100
H1721	H172	0.218300	0.362300	0.450400
C2161	C216	0.170900	0.572000	0.392800
H1731	H173	0.141900	0.580100	0.409300
C2171	C217	0.186000	0.527700	0.413600
H1741	H174	0.168500	0.507000	0.446000
C2181	C218	0.228900	0.514500	0.384500
C2191	C219	0.253800	0.548700	0.346000
H1751	H175	0.283600	0.542800	0.332400
C2201	C220	0.235600	0.592000	0.326600
H1761	H176	0.253100	0.613400	0.295400
C2211	C221	0.228800	0.253900	0.501100
H1771	H177	0.211800	0.278300	0.477400
C2221	C222	0.207500	0.214300	0.528000
H1781	H178	0.176400	0.212600	0.524700
C2231	C223	0.231300	0.176200	0.560300
C2241	C224	0.276500	0.181700	0.568800
H1791	H179	0.293700	0.158000	0.594300
C2251	C225	0.297200	0.224000	0.538000
H1801	H180	0.328300	0.226300	0.540000
C2261	C226	0.149900	0.076000	0.571400
H1811	H181	0.123000	0.067900	0.544800
C2271	C227	0.169100	0.118200	0.550400
H1821	H182	0.154700	0.138800	0.512300
C2281	C228	0.209700	0.130300	0.585500
C2291	C229	0.228100	0.100200	0.642800
H1831	H183	0.255400	0.107500	0.668700
C2301	C230	0.207000	0.058600	0.663600
H1841	H184	0.220600	0.038500	0.703700
C2311	C231	0.090500	0.035000	0.804700
H1851	H185	0.103600	0.061600	0.780300
C2321	C232	0.056400	0.040400	0.864900
H1861	H186	0.046400	0.070600	0.878400
C2331	C233	0.036500	0.001300	0.906300
C2341	C234	0.053500	0.957200	0.882800
H1871	H187	0.042700	0.929900	0.909300
C2351	C235	0.086200	0.954600	0.820500
H1881	H188	0.096400	0.924900	0.804200
C2361	C236	0.932300	0.045200	0.018600
H1891	H189	0.913600	0.071500	0.016600
C2371	C237	0.965800	0.043500	0.958400
H1901	H190	0.967900	0.065900	0.914000
C2381	C238	0.998100	0.005500	0.965900
C2391	C239	0.991000	0.974000	0.031900
H1911	H191	0.011300	0.949400	0.040100
C2401	C240	0.954300	0.977700	0.087100
H1921	H192	0.950400	0.955200	0.130700
C2411	C241	0.149100	0.881500	0.658500
H1931	H193	0.118300	0.879800	0.650600
C2421	C242	0.172900	0.839900	0.674000
H1941	H194	0.157600	0.811400	0.676800
C2431	C243	0.219500	0.840600	0.685500
C2441	C244	0.240000	0.885300	0.678700
H1951	H195	0.270700	0.888500	0.685600
C2451	C245	0.213700	0.923900	0.661700
H1961	H196	0.228000	0.952800	0.654500
C2461	C246	0.249400	0.720700	0.766000
H1971	H197	0.234400	0.694300	0.787000
C2471	C247	0.224400	0.757900	0.738900
H1981	H198	0.193300	0.755700	0.739500
C2481	C248	0.243700	0.797500	0.711500
C2491	C249	0.290200	0.796400	0.709400
H1991	H199	0.306100	0.822600	0.690200
C2501	C250	0.312700	0.756700	0.735600
H2001	H200	0.343800	0.756900	0.732100
Cu161	Cu16	0.329570	0.668420	0.820500
Cu171	Cu17	0.693480	0.686700	0.957300
Cu181	Cu18	0.866040	0.015580	0.157990
N511	N51	0.394400	0.674800	0.851500
N521	N52	0.628000	0.689900	0.930900
N531	N53	0.718800	0.624300	0.929900
N541	N54	0.804100	0.395300	0.849200
N551	N55	0.725900	0.740100	0.006900
N561	N56	0.831900	0.954300	0.128800
N571	N57	0.895100	0.007300	0.280900
N581	N58	0.076700	0.986500	0.579800
N591	N59	0.831100	0.076900	0.154600
N601	N60	0.706300	0.280700	0.264600
C2511	C251	0.423200	0.684000	0.785800
H2011	H201	0.412100	0.686000	0.728900
C2521	C252	0.469300	0.690700	0.799700
H2021	H202	0.487600	0.700000	0.753600
C2531	C253	0.487400	0.683400	0.882500
C2541	C254	0.457800	0.671800	0.948600
H2031	H203	0.468200	0.667300	0.005300
C2551	C255	0.413200	0.667000	0.930900
H2041	H204	0.394500	0.657700	0.976400
C2561	C256	0.611200	0.676700	0.851400
H2051	H205	0.631100	0.668300	0.807400
C2571	C257	0.565900	0.675400	0.833200
H2061	H206	0.556100	0.666600	0.777800
C2581	C258	0.535400	0.687000	0.897100
C2591	C259	0.552300	0.701700	0.978200
H2071	H207	0.532800	0.710400	0.022900
C2601	C260	0.597400	0.703200	0.991500
H2081	H208	0.607800	0.714100	0.045300
C2611	C261	0.692900	0.586200	0.918700
H2091	H209	0.662200	0.590500	0.924500
C2621	C262	0.706800	0.543300	0.900300
H2101	H210	0.686500	0.519600	0.886700
C2631	C263	0.753700	0.534000	0.901700
C2641	C264	0.780800	0.569900	0.919900
H2111	H211	0.811600	0.565600	0.922300
C2651	C265	0.762200	0.613500	0.935100
H2121	H212	0.781700	0.637700	0.950400
C2661	C266	0.829100	0.428000	0.892800
H2131	H213	0.858100	0.419900	0.909300
C2671	C267	0.814000	0.472300	0.913600
H2141	H214	0.831500	0.493000	0.946000
C2681	C268	0.771100	0.485500	0.884500
C2691	C269	0.746200	0.451300	0.846000
H2151	H215	0.716400	0.457200	0.832400
C2701	C270	0.764400	0.408000	0.826600
H2161	H216	0.746900	0.386600	0.795400
C2711	C271	0.771200	0.746100	0.001100
H2171	H217	0.788200	0.721700	0.977400
C2721	C272	0.792500	0.785700	0.028000
H2181	H218	0.823600	0.787400	0.024700
C2731	C273	0.768700	0.823800	0.060300
C2741	C274	0.723500	0.818300	0.068800
H2191	H219	0.706300	0.842000	0.094300
C2751	C275	0.702800	0.776000	0.038000
H2201	H220	0.671700	0.773700	0.040000
C2761	C276	0.850100	0.924000	0.071400
H2211	H221	0.877000	0.932100	0.044800
C2771	C277	0.830900	0.881800	0.050400
H2221	H222	0.845300	0.861200	0.012300
C2781	C278	0.790300	0.869700	0.085500
C2791	C279	0.771900	0.899800	0.142800
H2231	H223	0.744600	0.892500	0.168700
C2801	C280	0.793000	0.941400	0.163600
H2241	H224	0.779400	0.961500	0.203700
C2811	C281	0.909500	0.965000	0.304700
H2251	H225	0.896400	0.938400	0.280300
C2821	C282	0.943600	0.959600	0.364900
H2261	H226	0.953600	0.929400	0.378400
C2831	C283	0.963500	0.998700	0.406300
C2841	C284	0.946500	0.042800	0.382800
H2271	H227	0.957300	0.070100	0.409300
C2851	C285	0.913800	0.045400	0.320500
H2281	H228	0.903600	0.075100	0.304200
C2861	C286	0.067700	0.954800	0.518600
H2291	H229	0.086400	0.928500	0.516600
C2871	C287	0.034200	0.956500	0.458400
H2301	H230	0.032100	0.934100	0.414000
C2881	C288	0.001900	0.994500	0.465900
C2891	C289	0.009000	0.026000	0.531900
H2311	H231	0.988700	0.050600	0.540100
C2901	C290	0.045700	0.022300	0.587100
H2321	H232	0.049600	0.044800	0.630700
C2911	C291	0.850900	0.118500	0.158500
H2331	H233	0.881700	0.120200	0.150600
C2921	C292	0.827100	0.160100	0.174000
H2341	H234	0.842400	0.188600	0.176800
C2931	C293	0.780500	0.159400	0.185500
C2941	C294	0.760000	0.114700	0.178700
H2351	H235	0.729300	0.111500	0.185600
C2951	C295	0.786300	0.076100	0.161700
H2361	H236	0.772000	0.047200	0.154500
C2961	C296	0.750600	0.279300	0.266000
H2371	H237	0.765600	0.305700	0.287000
C2971	C297	0.775600	0.242100	0.238900
H2381	H238	0.806700	0.244300	0.239500
C2981	C298	0.756300	0.202500	0.211500
C2991	C299	0.709800	0.203600	0.209400
H2391	H239	0.693900	0.177400	0.190200
C3001	C300	0.687300	0.243300	0.235600
H2401	H240	0.656200	0.243100	0.232100
Cu191	Cu19	0.170430	0.668420	0.320500
Cu201	Cu20	0.806520	0.686700	0.457300
Cu211	Cu21	0.633960	0.015580	0.657990
N611	N61	0.105600	0.674800	0.351500
N621	N62	0.872000	0.689900	0.430900
N631	N63	0.781200	0.624300	0.429900
N641	N64	0.695900	0.395300	0.349200
N651	N65	0.774100	0.740100	0.506900
N661	N66	0.668100	0.954300	0.628800
N671	N67	0.604900	0.007300	0.780900
N681	N68	0.423300	0.986500	0.079800
N691	N69	0.668900	0.076900	0.654600
N701	N70	0.793700	0.280700	0.764600
C3011	C301	0.076800	0.684000	0.285800
H2411	H241	0.087900	0.686000	0.228900
C3021	C302	0.030700	0.690700	0.299700
H2421	H242	0.012400	0.700000	0.253600
C3031	C303	0.012600	0.683400	0.382500
C3041	C304	0.042200	0.671800	0.448600
H2431	H243	0.031800	0.667300	0.505300
C3051	C305	0.086800	0.667000	0.430900
H2441	H244	0.105500	0.657700	0.476400
C3061	C306	0.888800	0.676700	0.351400
H2451	H245	0.868900	0.668300	0.307400
C3071	C307	0.934100	0.675400	0.333200
H2461	H246	0.943900	0.666600	0.277800
C3081	C308	0.964600	0.687000	0.397100
C3091	C309	0.947700	0.701700	0.478200
H2471	H247	0.967200	0.710400	0.522900
C3101	C310	0.902600	0.703200	0.491500
H2481	H248	0.892200	0.714100	0.545300
C3111	C311	0.807100	0.586200	0.418700
H2491	H249	0.837800	0.590500	0.424500
C3121	C312	0.793200	0.543300	0.400300
H2501	H250	0.813500	0.519600	0.386700
C3131	C313	0.746300	0.534000	0.401700
C3141	C314	0.719200	0.569900	0.419900
H2511	H251	0.688400	0.565600	0.422300
C3151	C315	0.737800	0.613500	0.435100
H2521	H252	0.718300	0.637700	0.450400
C3161	C316	0.670900	0.428000	0.392800
H2531	H253	0.641900	0.419900	0.409300
C3171	C317	0.686000	0.472300	0.413600
H2541	H254	0.668500	0.493000	0.446000
C3181	C318	0.728900	0.485500	0.384500
C3191	C319	0.753800	0.451300	0.346000
H2551	H255	0.783600	0.457200	0.332400
C3201	C320	0.735600	0.408000	0.326600
H2561	H256	0.753100	0.386600	0.295400
C3211	C321	0.728800	0.746100	0.501100
H2571	H257	0.711800	0.721700	0.477400
C3221	C322	0.707500	0.785700	0.528000
H2581	H258	0.676400	0.787400	0.524700
C3231	C323	0.731300	0.823800	0.560300
C3241	C324	0.776500	0.818300	0.568800
H2591	H259	0.793700	0.842000	0.594300
C3251	C325	0.797200	0.776000	0.538000
H2601	H260	0.828300	0.773700	0.540000
C3261	C326	0.649900	0.924000	0.571400
H2611	H261	0.623000	0.932100	0.544800
C3271	C327	0.669100	0.881800	0.550400
H2621	H262	0.654700	0.861200	0.512300
C3281	C328	0.709700	0.869700	0.585500
C3291	C329	0.728100	0.899800	0.642800
H2631	H263	0.755400	0.892500	0.668700
C3301	C330	0.707000	0.941400	0.663600
H2641	H264	0.720600	0.961500	0.703700
C3311	C331	0.590500	0.965000	0.804700
H2651	H265	0.603600	0.938400	0.780300
C3321	C332	0.556400	0.959600	0.864900
H2661	H266	0.546400	0.929400	0.878400
C3331	C333	0.536500	0.998700	0.906300
C3341	C334	0.553500	0.042800	0.882800
H2671	H267	0.542700	0.070100	0.909300
C3351	C335	0.586200	0.045400	0.820500
H2681	H268	0.596400	0.075100	0.804200
C3361	C336	0.432300	0.954800	0.018600
H2691	H269	0.413600	0.928500	0.016600
C3371	C337	0.465800	0.956500	0.958400
H2701	H270	0.467900	0.934100	0.914000
C3381	C338	0.498100	0.994500	0.965900
C3391	C339	0.491000	0.026000	0.031900
H2711	H271	0.511300	0.050600	0.040100
C3401	C340	0.454300	0.022300	0.087100
H2721	H272	0.450400	0.044800	0.130700
C3411	C341	0.649100	0.118500	0.658500
H2731	H273	0.618300	0.120200	0.650600
C3421	C342	0.672900	0.160100	0.674000
H2741	H274	0.657600	0.188600	0.676800
C3431	C343	0.719500	0.159400	0.685500
C3441	C344	0.740000	0.114700	0.678700
H2751	H275	0.770700	0.111500	0.685600
C3451	C345	0.713700	0.076100	0.661700
H2761	H276	0.728000	0.047200	0.654500
C3461	C346	0.749400	0.279300	0.766000
H2771	H277	0.734400	0.305700	0.787000
C3471	C347	0.724400	0.242100	0.738900
H2781	H278	0.693300	0.244300	0.739500
C3481	C348	0.743700	0.202500	0.711500
C3491	C349	0.790200	0.203600	0.709400
H2791	H279	0.806100	0.177400	0.690200
C3501	C350	0.812700	0.243300	0.735600
H2801	H280	0.843800	0.243100	0.732100
Cu221	Cu22	0.829570	0.331580	0.820500
Cu231	Cu23	0.193480	0.313300	0.957300
Cu241	Cu24	0.366040	0.984420	0.157990
N711	N71	0.894400	0.325200	0.851500
N721	N72	0.128000	0.310100	0.930900
N731	N73	0.218800	0.375700	0.929900
N741	N74	0.304100	0.604700	0.849200
N751	N75	0.225900	0.259900	0.006900
N761	N76	0.331900	0.045700	0.128800
N771	N77	0.395100	0.992700	0.280900
N781	N78	0.576700	0.013500	0.579800
N791	N79	0.331100	0.923100	0.154600
N801	N80	0.206300	0.719300	0.264600
C3511	C351	0.923200	0.316000	0.785800
H2811	H281	0.912100	0.314000	0.728900
C3521	C352	0.969300	0.309300	0.799700
H2821	H282	0.987600	0.300000	0.753600
C3531	C353	0.987400	0.316600	0.882500
C3541	C354	0.957800	0.328200	0.948600
H2831	H283	0.968200	0.332700	0.005300
C3551	C355	0.913200	0.333000	0.930900
H2841	H284	0.894500	0.342300	0.976400
C3561	C356	0.111200	0.323300	0.851400
H2851	H285	0.131100	0.331700	0.807400
C3571	C357	0.065900	0.324600	0.833200
H2861	H286	0.056100	0.333400	0.777800
C3581	C358	0.035400	0.313000	0.897100
C3591	C359	0.052300	0.298300	0.978200
H2871	H287	0.032800	0.289600	0.022900
C3601	C360	0.097400	0.296800	0.991500
H2881	H288	0.107800	0.285900	0.045300
C3611	C361	0.192900	0.413800	0.918700
H2891	H289	0.162200	0.409500	0.924500
C3621	C362	0.206800	0.456700	0.900300
H2901	H290	0.186500	0.480400	0.886700
C3631	C363	0.253700	0.466000	0.901700
C3641	C364	0.280800	0.430100	0.919900
H2911	H291	0.311600	0.434400	0.922300
C3651	C365	0.262200	0.386500	0.935100
H2921	H292	0.281700	0.362300	0.950400
C3661	C366	0.329100	0.572000	0.892800
H2931	H293	0.358100	0.580100	0.909300
C3671	C367	0.314000	0.527700	0.913600
H2941	H294	0.331500	0.507000	0.946000
C3681	C368	0.271100	0.514500	0.884500
C3691	C369	0.246200	0.548700	0.846000
H2951	H295	0.216400	0.542800	0.832400
C3701	C370	0.264400	0.592000	0.826600
H2961	H296	0.246900	0.613400	0.795400
C3711	C371	0.271200	0.253900	0.001100
H2971	H297	0.288200	0.278300	0.977400
C3721	C372	0.292500	0.214300	0.028000
H2981	H298	0.323600	0.212600	0.024700
C3731	C373	0.268700	0.176200	0.060300
C3741	C374	0.223500	0.181700	0.068800
H2991	H299	0.206300	0.158000	0.094300
C3751	C375	0.202800	0.224000	0.038000
H3001	H300	0.171700	0.226300	0.040000
C3761	C376	0.350100	0.076000	0.071400
H3011	H301	0.377000	0.067900	0.044800
C3771	C377	0.330900	0.118200	0.050400
H3021	H302	0.345300	0.138800	0.012300
C3781	C378	0.290300	0.130300	0.085500
C3791	C379	0.271900	0.100200	0.142800
H3031	H303	0.244600	0.107500	0.168700
C3801	C380	0.293000	0.058600	0.163600
H3041	H304	0.279400	0.038500	0.203700
C3811	C381	0.409500	0.035000	0.304700
H3051	H305	0.396400	0.061600	0.280300
C3821	C382	0.443600	0.040400	0.364900
H3061	H306	0.453600	0.070600	0.378400
C3831	C383	0.463500	0.001300	0.406300
C3841	C384	0.446500	0.957200	0.382800
H3071	H307	0.457300	0.929900	0.409300
C3851	C385	0.413800	0.954600	0.320500
H3081	H308	0.403600	0.924900	0.304200
C3861	C386	0.567700	0.045200	0.518600
H3091	H309	0.586400	0.071500	0.516600
C3871	C387	0.534200	0.043500	0.458400
H3101	H310	0.532100	0.065900	0.414000
C3881	C388	0.501900	0.005500	0.465900
C3891	C389	0.509000	0.974000	0.531900
H3111	H311	0.488700	0.949400	0.540100
C3901	C390	0.545700	0.977700	0.587100
H3121	H312	0.549600	0.955200	0.630700
C3911	C391	0.350900	0.881500	0.158500
H3131	H313	0.381700	0.879800	0.150600
C3921	C392	0.327100	0.839900	0.174000
H3141	H314	0.342400	0.811400	0.176800
C3931	C393	0.280500	0.840600	0.185500
C3941	C394	0.260000	0.885300	0.178700
H3151	H315	0.229300	0.888500	0.185600
C3951	C395	0.286300	0.923900	0.161700
H3161	H316	0.272000	0.952800	0.154500
C3961	C396	0.250600	0.720700	0.266000
H3171	H317	0.265600	0.694300	0.287000
C3971	C397	0.275600	0.757900	0.238900
H3181	H318	0.306700	0.755700	0.239500
C3981	C398	0.256300	0.797500	0.211500
C3991	C399	0.209800	0.796400	0.209400
H3191	H319	0.193900	0.822600	0.190200
C4001	C400	0.187300	0.756700	0.235600
H3201	H320	0.156200	0.756900	0.232100
