data_XUWKEH_clean_PM
_symmetry_space_group_name_H-M	'P1'
_cell_length_a	31.019000
_cell_length_b	7.185700
_cell_length_c	8.103000
_cell_angle_alpha	90.000000
_cell_angle_beta	96.038000
_cell_angle_gamma	90.000000
_symmetry_Int_Tables_number 1

loop_
_symmetry_equiv_pos_as_xyz
'x,y,z'

loop_
_atom_site_label
_atom_site_type_symbol
_atom_site_fract_x
_atom_site_fract_y
_atom_site_fract_z
Mo11	Mo1	0.130350	0.982000	0.051510
Mn11	Mn1	0.147780	0.479700	0.558800
C11	C1	0.075300	0.813000	0.067000
C21	C2	0.076700	0.164000	0.994000
C31	C3	0.139300	0.182000	0.861000
C41	C4	0.136600	0.179000	0.256000
C51	C5	0.147700	0.795000	0.258000
C61	C6	0.146500	0.803000	0.856000
C71	C7	0.200700	0.013000	0.083000
N11	N1	0.046900	0.705000	0.065300
N21	N2	0.048900	0.268000	0.976000
N31	N3	0.142000	0.286000	0.755000
N41	N4	0.156200	0.275000	0.366500
N51	N5	0.139200	0.691000	0.364000
N61	N6	0.157200	0.704000	0.755700
N71	N7	0.237000	0.951000	0.100600
K11	K1	0.194720	0.482600	0.091300
Mo21	Mo2	0.630350	0.482000	0.051510
Mn21	Mn2	0.647780	0.979700	0.558800
C81	C8	0.575300	0.313000	0.067000
C91	C9	0.576700	0.664000	0.994000
C101	C10	0.639300	0.682000	0.861000
C111	C11	0.636600	0.679000	0.256000
C121	C12	0.647700	0.295000	0.258000
C131	C13	0.646500	0.303000	0.856000
C141	C14	0.700700	0.513000	0.083000
N81	N8	0.546900	0.205000	0.065300
N91	N9	0.548900	0.768000	0.976000
N101	N10	0.642000	0.786000	0.755000
N111	N11	0.656200	0.775000	0.366500
N121	N12	0.639200	0.191000	0.364000
N131	N13	0.657200	0.204000	0.755700
N141	N14	0.737000	0.451000	0.100600
K21	K2	0.694720	0.982600	0.091300
Mo31	Mo3	0.869650	0.982000	0.948490
Mn31	Mn3	0.852220	0.479700	0.441200
C151	C15	0.924700	0.813000	0.933000
C161	C16	0.923300	0.164000	0.006000
C171	C17	0.860700	0.182000	0.139000
C181	C18	0.863400	0.179000	0.744000
C191	C19	0.852300	0.795000	0.742000
C201	C20	0.853500	0.803000	0.144000
C211	C21	0.799300	0.013000	0.917000
N151	N15	0.953100	0.705000	0.934700
N161	N16	0.951100	0.268000	0.024000
N171	N17	0.858000	0.286000	0.245000
N181	N18	0.843800	0.275000	0.633500
N191	N19	0.860800	0.691000	0.636000
N201	N20	0.842800	0.704000	0.244300
N211	N21	0.763000	0.951000	0.899400
K31	K3	0.805280	0.482600	0.908700
Mo41	Mo4	0.369650	0.482000	0.948490
Mn41	Mn4	0.352220	0.979700	0.441200
C221	C22	0.424700	0.313000	0.933000
C231	C23	0.423300	0.664000	0.006000
C241	C24	0.360700	0.682000	0.139000
C251	C25	0.363400	0.679000	0.744000
C261	C26	0.352300	0.295000	0.742000
C271	C27	0.353500	0.303000	0.144000
C281	C28	0.299300	0.513000	0.917000
N221	N22	0.453100	0.205000	0.934700
N231	N23	0.451100	0.768000	0.024000
N241	N24	0.358000	0.786000	0.245000
N251	N25	0.343800	0.775000	0.633500
N261	N26	0.360800	0.191000	0.636000
N271	N27	0.342800	0.204000	0.244300
N281	N28	0.263000	0.451000	0.899400
K41	K4	0.305280	0.982600	0.908700
Mn51	Mn5	0.000000	0.486600	0.000000
Mn61	Mn6	0.500000	0.986600	0.000000
