data_XUWSUD_clean_PM
_symmetry_space_group_name_H-M	'P1'
_cell_length_a	10.039000
_cell_length_b	17.388500
_cell_length_c	16.735600
_cell_angle_alpha	90.000000
_cell_angle_beta	90.000000
_cell_angle_gamma	90.000000
_symmetry_Int_Tables_number 1

loop_
_symmetry_equiv_pos_as_xyz
'x,y,z'

loop_
_atom_site_label
_atom_site_type_symbol
_atom_site_fract_x
_atom_site_fract_y
_atom_site_fract_z
Ga11	Ga1	0.264700	0.578500	0.916700
Mn11	Mn1	0.811300	0.729700	0.916700
P11	P1	0.479900	0.699400	0.924200
P21	P2	0.190800	0.410400	0.909300
P31	P3	0.789000	0.609800	0.757700
O11	O1	0.434500	0.613100	0.925200
O21	O2	0.483700	0.723400	0.834300
O31	O3	0.618800	0.702300	0.959800
O41	O4	0.379100	0.749700	0.965600
O51	O5	0.297000	0.475900	0.908200
O61	O6	0.156900	0.396700	0.998900
O71	O7	0.256100	0.340000	0.873200
O81	O8	0.065900	0.436000	0.868000
O91	O9	0.637500	0.589300	0.759300
O101	O10	0.827100	0.619700	0.667600
O111	O11	0.862000	0.541500	0.792700
O121	O12	0.813600	0.685500	0.798200
Ga21	Ga2	0.764700	0.078500	0.916700
Mn21	Mn2	0.311300	0.229700	0.916700
P41	P4	0.979900	0.199400	0.924200
P51	P5	0.690800	0.910400	0.909300
P61	P6	0.289000	0.109800	0.757700
O131	O13	0.934500	0.113100	0.925200
O141	O14	0.983700	0.223400	0.834300
O151	O15	0.118800	0.202300	0.959800
O161	O16	0.879100	0.249700	0.965600
O171	O17	0.797000	0.975900	0.908200
O181	O18	0.656900	0.896700	0.998900
O191	O19	0.756100	0.840000	0.873200
O201	O20	0.565900	0.936000	0.868000
O211	O21	0.137500	0.089300	0.759300
O221	O22	0.327100	0.119700	0.667600
O231	O23	0.362000	0.041500	0.792700
O241	O24	0.313600	0.185500	0.798200
Ga31	Ga3	0.735300	0.421500	0.416700
Mn31	Mn3	0.188700	0.270300	0.416700
P71	P7	0.520100	0.300600	0.424200
P81	P8	0.809200	0.589600	0.409300
P91	P9	0.211000	0.390200	0.257700
O251	O25	0.565500	0.386900	0.425200
O261	O26	0.516300	0.276600	0.334300
O271	O27	0.381200	0.297700	0.459800
O281	O28	0.620900	0.250300	0.465600
O291	O29	0.703000	0.524100	0.408200
O301	O30	0.843100	0.603300	0.498900
O311	O31	0.743900	0.660000	0.373200
O321	O32	0.934100	0.564000	0.368000
O331	O33	0.362500	0.410700	0.259300
O341	O34	0.172900	0.380300	0.167600
O351	O35	0.138000	0.458500	0.292700
O361	O36	0.186400	0.314500	0.298200
Ga41	Ga4	0.235300	0.921500	0.416700
Mn41	Mn4	0.688700	0.770300	0.416700
P101	P10	0.020100	0.800600	0.424200
P111	P11	0.309200	0.089600	0.409300
P121	P12	0.711000	0.890200	0.257700
O371	O37	0.065500	0.886900	0.425200
O381	O38	0.016300	0.776600	0.334300
O391	O39	0.881200	0.797700	0.459800
O401	O40	0.120900	0.750300	0.465600
O411	O41	0.203000	0.024100	0.408200
O421	O42	0.343100	0.103300	0.498900
O431	O43	0.243900	0.160000	0.373200
O441	O44	0.434100	0.064000	0.368000
O451	O45	0.862500	0.910700	0.259300
O461	O46	0.672900	0.880300	0.167600
O471	O47	0.638000	0.958500	0.292700
O481	O48	0.686400	0.814500	0.298200
Ga51	Ga5	0.735300	0.578500	0.583300
Mn51	Mn5	0.188700	0.729700	0.583300
P131	P13	0.520100	0.699400	0.575800
P141	P14	0.809200	0.410400	0.590700
P151	P15	0.211000	0.609800	0.742300
O491	O49	0.565500	0.613100	0.574800
O501	O50	0.516300	0.723400	0.665700
O511	O51	0.381200	0.702300	0.540200
O521	O52	0.620900	0.749700	0.534400
O531	O53	0.703000	0.475900	0.591800
O541	O54	0.843100	0.396700	0.501100
O551	O55	0.743900	0.340000	0.626800
O561	O56	0.934100	0.436000	0.632000
O571	O57	0.362500	0.589300	0.740700
O581	O58	0.172900	0.619700	0.832400
O591	O59	0.138000	0.541500	0.707300
O601	O60	0.186400	0.685500	0.701800
Ga61	Ga6	0.235300	0.078500	0.583300
Mn61	Mn6	0.688700	0.229700	0.583300
P161	P16	0.020100	0.199400	0.575800
P171	P17	0.309200	0.910400	0.590700
P181	P18	0.711000	0.109800	0.742300
O611	O61	0.065500	0.113100	0.574800
O621	O62	0.016300	0.223400	0.665700
O631	O63	0.881200	0.202300	0.540200
O641	O64	0.120900	0.249700	0.534400
O651	O65	0.203000	0.975900	0.591800
O661	O66	0.343100	0.896700	0.501100
O671	O67	0.243900	0.840000	0.626800
O681	O68	0.434100	0.936000	0.632000
O691	O69	0.862500	0.089300	0.740700
O701	O70	0.672900	0.119700	0.832400
O711	O71	0.638000	0.041500	0.707300
O721	O72	0.686400	0.185500	0.701800
Ga71	Ga7	0.264700	0.421500	0.083300
Mn71	Mn7	0.811300	0.270300	0.083300
P191	P19	0.479900	0.300600	0.075800
P201	P20	0.190800	0.589600	0.090700
P211	P21	0.789000	0.390200	0.242300
O731	O73	0.434500	0.386900	0.074800
O741	O74	0.483700	0.276600	0.165700
O751	O75	0.618800	0.297700	0.040200
O761	O76	0.379100	0.250300	0.034400
O771	O77	0.297000	0.524100	0.091800
O781	O78	0.156900	0.603300	0.001100
O791	O79	0.256100	0.660000	0.126800
O801	O80	0.065900	0.564000	0.132000
O811	O81	0.637500	0.410700	0.240700
O821	O82	0.827100	0.380300	0.332400
O831	O83	0.862000	0.458500	0.207300
O841	O84	0.813600	0.314500	0.201800
Ga81	Ga8	0.764700	0.921500	0.083300
Mn81	Mn8	0.311300	0.770300	0.083300
P221	P22	0.979900	0.800600	0.075800
P231	P23	0.690800	0.089600	0.090700
P241	P24	0.289000	0.890200	0.242300
O851	O85	0.934500	0.886900	0.074800
O861	O86	0.983700	0.776600	0.165700
O871	O87	0.118800	0.797700	0.040200
O881	O88	0.879100	0.750300	0.034400
O891	O89	0.797000	0.024100	0.091800
O901	O90	0.656900	0.103300	0.001100
O911	O91	0.756100	0.160000	0.126800
O921	O92	0.565900	0.064000	0.132000
O931	O93	0.137500	0.910700	0.240700
O941	O94	0.327100	0.880300	0.332400
O951	O95	0.362000	0.958500	0.207300
O961	O96	0.313600	0.814500	0.201800
Ga91	Ga9	0.500000	0.657100	0.750000
Ga101	Ga10	0.000000	0.157100	0.750000
Ga111	Ga11	0.500000	0.342900	0.250000
Ga121	Ga12	0.000000	0.842900	0.250000
Mn91	Mn9	0.000000	0.459200	0.750000
Mn101	Mn10	0.500000	0.959200	0.750000
Mn111	Mn11	0.000000	0.540800	0.250000
Mn121	Mn12	0.500000	0.040800	0.250000
