data_XUZFUU_clean_PM
_symmetry_space_group_name_H-M	'P1'
_cell_length_a	16.699500
_cell_length_b	16.710600
_cell_length_c	9.790700
_cell_angle_alpha	90.000000
_cell_angle_beta	90.000000
_cell_angle_gamma	90.000000
_symmetry_Int_Tables_number 1

loop_
_symmetry_equiv_pos_as_xyz
'x,y,z'

loop_
_atom_site_label
_atom_site_type_symbol
_atom_site_fract_x
_atom_site_fract_y
_atom_site_fract_z
Na11	Na1	0.861900	0.686500	0.828300
O11	O1	0.925800	0.796000	0.701600
Na21	Na2	0.361900	0.186500	0.328300
O21	O2	0.425800	0.296000	0.201600
Na31	Na3	0.138100	0.813500	0.828300
O31	O3	0.074200	0.704000	0.701600
Na41	Na4	0.638100	0.313500	0.328300
O41	O4	0.574200	0.204000	0.201600
Na51	Na5	0.138100	0.186500	0.171700
O51	O5	0.074200	0.296000	0.298400
Na61	Na6	0.638100	0.686500	0.671700
O61	O6	0.574200	0.796000	0.798400
Na71	Na7	0.861900	0.313500	0.171700
O71	O7	0.925800	0.204000	0.298400
Na81	Na8	0.361900	0.813500	0.671700
O81	O8	0.425800	0.704000	0.798400
Na91	Na9	0.138100	0.313500	0.171700
O91	O9	0.074200	0.204000	0.298400
Na101	Na10	0.638100	0.813500	0.671700
O101	O10	0.574200	0.704000	0.798400
Na111	Na11	0.861900	0.186500	0.171700
O111	O11	0.925800	0.296000	0.298400
Na121	Na12	0.361900	0.686500	0.671700
O121	O12	0.425800	0.796000	0.798400
Na131	Na13	0.861900	0.813500	0.828300
O131	O13	0.925800	0.704000	0.701600
Na141	Na14	0.361900	0.313500	0.328300
O141	O14	0.425800	0.204000	0.201600
Na151	Na15	0.138100	0.686500	0.828300
O151	O15	0.074200	0.796000	0.701600
Na161	Na16	0.638100	0.186500	0.328300
O161	O16	0.574200	0.296000	0.201600
Ho11	Ho1	0.000000	0.750000	0.119870
Na171	Na17	0.000000	0.750000	0.507100
Ho21	Ho2	0.500000	0.250000	0.619870
Na181	Na18	0.500000	0.250000	0.007100
Ho31	Ho3	0.000000	0.250000	0.880130
Na191	Na19	0.000000	0.250000	0.492900
Ho41	Ho4	0.500000	0.750000	0.380130
Na201	Na20	0.500000	0.750000	0.992900
O171	O17	0.090200	0.750000	0.310000
O181	O18	0.136000	0.750000	0.051300
C11	C1	0.167600	0.750000	0.287800
C21	C2	0.192800	0.750000	0.142200
C31	C3	0.225300	0.750000	0.390000
H11	H1	0.209100	0.750000	0.483000
O191	O19	0.590200	0.250000	0.810000
O201	O20	0.636000	0.250000	0.551300
C41	C4	0.667600	0.250000	0.787800
C51	C5	0.692800	0.250000	0.642200
C61	C6	0.725300	0.250000	0.890000
H21	H2	0.709100	0.250000	0.983000
O211	O21	0.909800	0.750000	0.310000
O221	O22	0.864000	0.750000	0.051300
C71	C7	0.832400	0.750000	0.287800
C81	C8	0.807200	0.750000	0.142200
C91	C9	0.774700	0.750000	0.390000
H31	H3	0.790900	0.750000	0.483000
O231	O23	0.409800	0.250000	0.810000
O241	O24	0.364000	0.250000	0.551300
C101	C10	0.332400	0.250000	0.787800
C111	C11	0.307200	0.250000	0.642200
C121	C12	0.274700	0.250000	0.890000
H41	H4	0.290900	0.250000	0.983000
O251	O25	0.909800	0.250000	0.690000
O261	O26	0.864000	0.250000	0.948700
C131	C13	0.832400	0.250000	0.712200
C141	C14	0.807200	0.250000	0.857800
C151	C15	0.774700	0.250000	0.610000
H51	H5	0.790900	0.250000	0.517000
O271	O27	0.409800	0.750000	0.190000
O281	O28	0.364000	0.750000	0.448700
C161	C16	0.332400	0.750000	0.212200
C171	C17	0.307200	0.750000	0.357800
C181	C18	0.274700	0.750000	0.110000
H61	H6	0.290900	0.750000	0.017000
O291	O29	0.090200	0.250000	0.690000
O301	O30	0.136000	0.250000	0.948700
C191	C19	0.167600	0.250000	0.712200
C201	C20	0.192800	0.250000	0.857800
C211	C21	0.225300	0.250000	0.610000
H71	H7	0.209100	0.250000	0.517000
O311	O31	0.590200	0.750000	0.190000
O321	O32	0.636000	0.750000	0.448700
C221	C22	0.667600	0.750000	0.212200
C231	C23	0.692800	0.750000	0.357800
C241	C24	0.725300	0.750000	0.110000
H81	H8	0.709100	0.750000	0.017000
O331	O33	0.000000	0.617000	0.195600
O341	O34	0.000000	0.660300	0.933600
C251	C25	0.000000	0.478000	0.138400
C261	C26	0.000000	0.583100	0.961100
C271	C27	0.000000	0.558500	0.104600
H91	H9	0.000000	0.463400	0.232200
O351	O35	0.500000	0.117000	0.695600
O361	O36	0.500000	0.160300	0.433600
C281	C28	0.500000	0.978000	0.638400
C291	C29	0.500000	0.083100	0.461100
C301	C30	0.500000	0.058500	0.604600
H101	H10	0.500000	0.963400	0.732200
O371	O37	0.000000	0.883000	0.195600
O381	O38	0.000000	0.839700	0.933600
C311	C31	0.000000	0.022000	0.138400
C321	C32	0.000000	0.916900	0.961100
C331	C33	0.000000	0.941500	0.104600
H111	H11	0.000000	0.036600	0.232200
O391	O39	0.500000	0.383000	0.695600
O401	O40	0.500000	0.339700	0.433600
C341	C34	0.500000	0.522000	0.638400
C351	C35	0.500000	0.416900	0.461100
C361	C36	0.500000	0.441500	0.604600
H121	H12	0.500000	0.536600	0.732200
O411	O41	0.000000	0.117000	0.804400
O421	O42	0.000000	0.160300	0.066400
C371	C37	0.000000	0.978000	0.861600
C381	C38	0.000000	0.083100	0.038900
C391	C39	0.000000	0.058500	0.895400
H131	H13	0.000000	0.963400	0.767800
O431	O43	0.500000	0.617000	0.304400
O441	O44	0.500000	0.660300	0.566400
C401	C40	0.500000	0.478000	0.361600
C411	C41	0.500000	0.583100	0.538900
C421	C42	0.500000	0.558500	0.395400
H141	H14	0.500000	0.463400	0.267800
O451	O45	0.000000	0.383000	0.804400
O461	O46	0.000000	0.339700	0.066400
C431	C43	0.000000	0.522000	0.861600
C441	C44	0.000000	0.416900	0.038900
C451	C45	0.000000	0.441500	0.895400
H151	H15	0.000000	0.536600	0.767800
O471	O47	0.500000	0.883000	0.304400
O481	O48	0.500000	0.839700	0.566400
C461	C46	0.500000	0.022000	0.361600
C471	C47	0.500000	0.916900	0.538900
C481	C48	0.500000	0.941500	0.395400
H161	H16	0.500000	0.036600	0.267800
O491	O49	0.750000	0.750000	0.750000
O501	O50	0.250000	0.250000	0.250000
O511	O51	0.250000	0.750000	0.750000
O521	O52	0.750000	0.250000	0.250000
