data_YACHOB_clean_PM
_symmetry_space_group_name_H-M	'P1'
_cell_length_a	10.110800
_cell_length_b	10.811000
_cell_length_c	13.740900
_cell_angle_alpha	79.139000
_cell_angle_beta	78.745000
_cell_angle_gamma	86.219000
_symmetry_Int_Tables_number 1

loop_
_symmetry_equiv_pos_as_xyz
'x,y,z'

loop_
_atom_site_label
_atom_site_type_symbol
_atom_site_fract_x
_atom_site_fract_y
_atom_site_fract_z
Dy11	Dy1	0.181890	0.077450	0.203230
Dy21	Dy2	0.818110	0.922550	0.796770
Co11	Co1	0.500000	0.500000	0.000000
H11	H1	0.172500	0.329700	0.346600
H21	H2	0.153400	0.671700	0.424000
H31	H3	0.217900	0.640600	0.131800
H41	H4	0.144300	0.545500	0.758000
H51	H5	0.134500	0.427700	0.915700
H61	H6	0.145000	0.118300	0.811200
H71	H7	0.154800	0.225200	0.649800
H81	H8	0.806100	0.146900	0.462500
H91	H9	0.410900	0.160000	0.459700
H101	H10	0.676300	0.086500	0.217700
H111	H11	0.491200	0.522700	0.629900
H121	H12	0.487700	0.592900	0.777500
H131	H13	0.466600	0.250900	0.929300
H141	H14	0.480800	0.169600	0.784500
H151	H15	0.120900	0.353600	0.518400
H161	H16	0.618800	0.157100	0.618400
H171	H17	0.827500	0.670300	0.653400
H181	H18	0.846600	0.328300	0.576000
H191	H19	0.782100	0.359400	0.868200
H201	H20	0.855700	0.454500	0.242000
H211	H21	0.865500	0.572300	0.084300
H221	H22	0.855000	0.881700	0.188800
H231	H23	0.845200	0.774800	0.350200
H241	H24	0.193900	0.853100	0.537500
H251	H25	0.589100	0.840000	0.540300
H261	H26	0.323700	0.913500	0.782300
H271	H27	0.508800	0.477300	0.370100
H281	H28	0.512300	0.407100	0.222500
H291	H29	0.533400	0.749100	0.070700
H301	H30	0.519200	0.830400	0.215500
H311	H31	0.879100	0.646400	0.481600
H321	H32	0.381200	0.842900	0.381600
C11	C1	0.200800	0.472700	0.227000
C21	C2	0.178000	0.416800	0.328500
C31	C3	0.163500	0.490100	0.403000
C41	C4	0.165000	0.621300	0.374900
C51	C5	0.183700	0.675300	0.274500
C61	C6	0.203300	0.602700	0.199500
C71	C7	0.187200	0.814600	0.247200
C81	C8	0.232400	0.392900	0.146600
C91	C9	0.165200	0.482700	0.581900
C101	C10	0.151700	0.399700	0.684400
C111	C11	0.145000	0.458100	0.766700
C121	C12	0.139200	0.386500	0.861500
C131	C13	0.145300	0.205900	0.799900
C141	C14	0.151200	0.269100	0.702400
C151	C15	0.763400	0.113600	0.331600
C161	C16	0.735600	0.141600	0.429000
C171	C17	0.604700	0.161300	0.475500
C181	C18	0.499600	0.148900	0.427600
C191	C19	0.526600	0.119700	0.331000
C201	C20	0.658400	0.103800	0.282800
C211	C21	0.908600	0.098300	0.283500
C221	C22	0.408800	0.108700	0.282700
C231	C23	0.495800	0.294500	0.591300
C241	C24	0.490200	0.338200	0.690400
C251	C25	0.489300	0.465300	0.689800
C261	C26	0.485600	0.506700	0.779100
C271	C27	0.474700	0.306100	0.867900
C281	C28	0.481700	0.256200	0.781400
C291	C29	0.799200	0.527300	0.773000
C301	C30	0.822000	0.583200	0.671500
C311	C31	0.836500	0.509900	0.597000
C321	C32	0.835000	0.378700	0.625100
C331	C33	0.816300	0.324700	0.725500
C341	C34	0.796700	0.397300	0.800500
C351	C35	0.812800	0.185400	0.752800
C361	C36	0.767600	0.607100	0.853400
C371	C37	0.834800	0.517300	0.418100
C381	C38	0.848300	0.600300	0.315600
C391	C39	0.855000	0.541900	0.233300
C401	C40	0.860800	0.613500	0.138500
C411	C41	0.854700	0.794100	0.200100
C421	C42	0.848800	0.730900	0.297600
C431	C43	0.236600	0.886400	0.668400
C441	C44	0.264400	0.858400	0.571000
C451	C45	0.395300	0.838700	0.524500
C461	C46	0.500400	0.851100	0.572400
C471	C47	0.473400	0.880300	0.669000
C481	C48	0.341600	0.896200	0.717200
C491	C49	0.091400	0.901700	0.716500
C501	C50	0.591200	0.891300	0.717300
C511	C51	0.504200	0.705500	0.408700
C521	C52	0.509800	0.661800	0.309600
C531	C53	0.510700	0.534700	0.310200
C541	C54	0.514400	0.493300	0.220900
C551	C55	0.525300	0.693900	0.132100
C561	C56	0.518300	0.743800	0.218600
N11	N1	0.146100	0.430400	0.504500
N21	N2	0.140000	0.261700	0.879100
N31	N3	0.579200	0.198200	0.571600
N41	N4	0.479000	0.429100	0.867900
N51	N5	0.853900	0.569600	0.495500
N61	N6	0.860000	0.738300	0.120900
N71	N7	0.420800	0.801800	0.428400
N81	N8	0.521000	0.570900	0.132100
O11	O1	0.306900	0.435100	0.065100
O21	O2	0.180100	0.286500	0.165400
O31	O3	0.170800	0.871700	0.161800
O41	O4	0.207200	0.878200	0.310700
O51	O5	0.192100	0.591800	0.574400
O61	O6	0.942700	0.098800	0.190600
O71	O7	0.997600	0.084200	0.336400
O81	O8	0.426500	0.093300	0.190800
O91	O9	0.291700	0.115100	0.332200
O101	O10	0.424000	0.351100	0.533100
O111	O11	0.693100	0.564900	0.934900
O121	O12	0.819900	0.713500	0.834600
O131	O13	0.829200	0.128300	0.838200
O141	O14	0.792800	0.121800	0.689300
O151	O15	0.807900	0.408200	0.425600
O161	O16	0.057300	0.901200	0.809400
O171	O17	0.002400	0.915800	0.663600
O181	O18	0.573500	0.906700	0.809200
O191	O19	0.708300	0.884900	0.667800
O201	O20	0.576000	0.648900	0.466900
