data_YAFGAP_clean_PM
_symmetry_space_group_name_H-M	'P1'
_cell_length_a	8.912100
_cell_length_b	9.169700
_cell_length_c	9.169700
_cell_angle_alpha	76.340400
_cell_angle_beta	60.924900
_cell_angle_gamma	60.924900
_symmetry_Int_Tables_number 1

loop_
_symmetry_equiv_pos_as_xyz
'x,y,z'

loop_
_atom_site_label
_atom_site_type_symbol
_atom_site_fract_x
_atom_site_fract_y
_atom_site_fract_z
K11	K1	0.875000	0.250000	0.250000
K21	K2	0.125000	0.750000	0.750000
Lu11	Lu1	0.375000	0.250000	0.250000
Lu21	Lu2	0.625000	0.750000	0.750000
C11	C1	0.395800	0.021100	0.026700
C21	C2	0.943600	0.478900	0.473300
C31	C3	0.422500	0.973300	0.521100
C41	C4	0.416900	0.526700	0.978900
C51	C5	0.604200	0.978900	0.973300
C61	C6	0.056400	0.521100	0.526700
C71	C7	0.577500	0.026700	0.478900
C81	C8	0.583100	0.473300	0.021100
O11	O1	0.273340	0.125460	0.140260
O21	O2	0.368260	0.943840	0.951240
O31	O3	0.039060	0.374540	0.359740
O41	O4	0.763340	0.556160	0.548760
O51	O5	0.413600	0.859740	0.625460
O61	O6	0.319500	0.048760	0.443840
O71	O7	0.398800	0.640260	0.874540
O81	O8	0.312100	0.451240	0.056160
O91	O9	0.726660	0.874540	0.859740
O101	O10	0.631740	0.056160	0.048760
O111	O11	0.960940	0.625460	0.640260
O121	O12	0.236660	0.443840	0.451240
O131	O13	0.586400	0.140260	0.374540
O141	O14	0.680500	0.951240	0.556160
O151	O15	0.601200	0.359740	0.125460
O161	O16	0.687900	0.548760	0.943840
