data_YAGJOI_clean_PM
_symmetry_space_group_name_H-M	'P1'
_cell_length_a	11.671400
_cell_length_b	11.918600
_cell_length_c	12.109400
_cell_angle_alpha	65.096000
_cell_angle_beta	79.897000
_cell_angle_gamma	72.275000
_symmetry_Int_Tables_number 1

loop_
_symmetry_equiv_pos_as_xyz
'x,y,z'

loop_
_atom_site_label
_atom_site_type_symbol
_atom_site_fract_x
_atom_site_fract_y
_atom_site_fract_z
O11	O1	0.947600	0.095900	0.125500
O21	O2	0.958000	0.072400	0.314400
O31	O3	0.949500	0.643100	0.580600
O41	O4	0.913200	0.848900	0.544900
N11	N1	0.010600	0.845100	0.180100
N21	N2	0.024300	0.720100	0.227400
N31	N3	0.003500	0.680800	0.346900
N41	N4	0.194900	0.999600	0.007100
N51	N5	0.797100	0.541100	0.481200
N61	N6	0.180500	0.867800	0.470500
C11	C1	0.979000	0.888000	0.273100
C21	C2	0.974100	0.782800	0.377300
C31	C3	0.959700	0.029200	0.237800
C41	C4	0.944300	0.757800	0.511600
C51	C5	0.283700	0.895000	0.027000
H11	H1	0.264800	0.818900	0.043300
C61	C6	0.401600	0.892000	0.025000
H21	H2	0.459900	0.814900	0.039500
C71	C7	0.436300	0.000700	0.002200
C81	C8	0.343400	0.108400	0.984400
H31	H3	0.359200	0.185000	0.971700
C91	C9	0.226900	0.104000	0.985100
H41	H4	0.166600	0.180000	0.969000
C101	C10	0.725100	0.525400	0.580500
H51	H5	0.759400	0.475100	0.655400
C111	C11	0.603100	0.578300	0.580700
H61	H6	0.557300	0.563700	0.654100
C121	C12	0.548500	0.653100	0.471800
C131	C13	0.623700	0.666300	0.366800
H71	H7	0.592100	0.714000	0.290400
C141	C14	0.745400	0.608300	0.376700
H81	H8	0.793700	0.617200	0.305300
C151	C15	0.419100	0.723200	0.467400
C161	C16	0.337900	0.680300	0.563400
H91	H9	0.362300	0.602300	0.628300
C171	C17	0.221300	0.753500	0.562300
H101	H10	0.168100	0.723300	0.627600
C181	C18	0.257000	0.905400	0.378800
H111	H11	0.230000	0.982500	0.313800
C191	C19	0.375900	0.837200	0.373000
H121	H12	0.426300	0.868500	0.305200
O51	O5	0.052400	0.904100	0.874500
O61	O6	0.042000	0.927600	0.685600
O71	O7	0.050500	0.356900	0.419400
O81	O8	0.086800	0.151100	0.455100
N71	N7	0.989400	0.154900	0.819900
N81	N8	0.975700	0.279900	0.772600
N91	N9	0.996500	0.319200	0.653100
N101	N10	0.805100	0.000400	0.992900
N111	N11	0.202900	0.458900	0.518800
N121	N12	0.819500	0.132200	0.529500
C201	C20	0.021000	0.112000	0.726900
C211	C21	0.025900	0.217200	0.622700
C221	C22	0.040300	0.970800	0.762200
C231	C23	0.055700	0.242200	0.488400
C241	C24	0.716300	0.105000	0.973000
H131	H13	0.735200	0.181100	0.956700
C251	C25	0.598400	0.108000	0.975000
H141	H14	0.540100	0.185100	0.960500
C261	C26	0.563700	0.999300	0.997800
C271	C27	0.656600	0.891600	0.015600
H151	H15	0.640800	0.815000	0.028300
C281	C28	0.773100	0.896000	0.014900
H161	H16	0.833400	0.820000	0.031000
C291	C29	0.274900	0.474600	0.419500
H171	H17	0.240600	0.524900	0.344600
C301	C30	0.396900	0.421700	0.419300
H181	H18	0.442700	0.436300	0.345900
C311	C31	0.451500	0.346900	0.528200
C321	C32	0.376300	0.333700	0.633200
H191	H19	0.407900	0.286000	0.709600
C331	C33	0.254600	0.391700	0.623300
H201	H20	0.206300	0.382800	0.694700
C341	C34	0.580900	0.276800	0.532600
C351	C35	0.662100	0.319700	0.436600
H211	H21	0.637700	0.397700	0.371700
C361	C36	0.778700	0.246500	0.437700
H221	H22	0.831900	0.276700	0.372400
C371	C37	0.743000	0.094600	0.621200
H231	H23	0.770000	0.017500	0.686200
C381	C38	0.624100	0.162800	0.627000
H241	H24	0.573700	0.131500	0.694800
Mn11	Mn1	0.000000	0.000000	0.000000
Mn21	Mn2	0.000000	0.500000	0.500000
Mn31	Mn3	0.000000	0.000000	0.500000
