data_YAJXIT_clean_PM
_symmetry_space_group_name_H-M	'P1'
_cell_length_a	17.493500
_cell_length_b	26.011600
_cell_length_c	15.808100
_cell_angle_alpha	90.000000
_cell_angle_beta	114.995000
_cell_angle_gamma	90.000000
_symmetry_Int_Tables_number 1

loop_
_symmetry_equiv_pos_as_xyz
'x,y,z'

loop_
_atom_site_label
_atom_site_type_symbol
_atom_site_fract_x
_atom_site_fract_y
_atom_site_fract_z
U11	U1	0.646770	0.734700	0.577130
Cu11	Cu1	0.759660	0.471130	0.485970
C11	C1	0.932100	0.619600	0.600500
H11	H1	0.967100	0.648300	0.617400
N11	N1	0.695100	0.406900	0.432100
C21	C2	0.965200	0.570800	0.613700
H21	H2	0.023400	0.566100	0.643100
N21	N2	0.716900	0.454700	0.585700
C31	C3	0.796500	0.581700	0.534000
H31	H3	0.738100	0.585400	0.507300
N31	N3	0.883000	0.439900	0.548300
C41	C4	0.028800	0.461000	0.628000
H41	H4	0.070600	0.485400	0.656600
N41	N4	0.829500	0.534200	0.544300
C51	C5	0.639000	0.342700	0.316200
C61	C6	0.803200	0.676700	0.545100
C71	C7	0.672800	0.409800	0.570300
C81	C8	0.739800	0.479500	0.666100
H51	H5	0.771500	0.509500	0.676300
C91	C9	0.845500	0.624700	0.561400
C101	C10	0.687700	0.386900	0.352600
H61	H6	0.715200	0.402300	0.320100
C111	C11	0.986800	0.375700	0.583500
C121	C12	0.596500	0.320800	0.363400
H71	H7	0.562400	0.292100	0.339000
C131	C13	0.906000	0.391400	0.547200
H81	H8	0.864000	0.366900	0.519700
C141	C14	0.672300	0.419500	0.719100
H91	H9	0.654800	0.408200	0.763900
C151	C15	0.912400	0.528400	0.583400
C161	C16	0.605200	0.341700	0.446900
H101	H10	0.577200	0.327300	0.479700
C171	C17	0.048200	0.411300	0.623600
H111	H11	0.104400	0.401200	0.648500
C181	C18	0.656500	0.384800	0.482000
C191	C19	0.943700	0.474400	0.588000
C201	C20	0.006000	0.318800	0.574300
O11	O1	0.845900	0.714600	0.543400
O21	O2	0.728400	0.677200	0.534100
O31	O3	0.676200	0.339200	0.186300
O41	O4	0.599700	0.276000	0.202400
O51	O5	0.080200	0.309500	0.585600
C211	C21	0.638400	0.318100	0.229900
O61	O6	0.949800	0.286500	0.555600
C221	C22	0.648800	0.390100	0.635600
H121	H12	0.619000	0.359400	0.626200
C231	C23	0.747300	0.495400	0.826900
C241	C24	0.717400	0.461600	0.735500
O71	O7	0.702300	0.488800	0.868500
O81	O8	0.805600	0.523500	0.843300
U21	U2	0.146770	0.234700	0.577130
Cu21	Cu2	0.259660	0.971130	0.485970
C251	C25	0.432100	0.119600	0.600500
H131	H13	0.467100	0.148300	0.617400
N51	N5	0.195100	0.906900	0.432100
C261	C26	0.465200	0.070800	0.613700
H141	H14	0.523400	0.066100	0.643100
N61	N6	0.216900	0.954700	0.585700
C271	C27	0.296500	0.081700	0.534000
H151	H15	0.238100	0.085400	0.507300
N71	N7	0.383000	0.939900	0.548300
C281	C28	0.528800	0.961000	0.628000
H161	H16	0.570600	0.985400	0.656600
N81	N8	0.329500	0.034200	0.544300
C291	C29	0.139000	0.842700	0.316200
C301	C30	0.303200	0.176700	0.545100
C311	C31	0.172800	0.909800	0.570300
C321	C32	0.239800	0.979500	0.666100
H171	H17	0.271500	0.009500	0.676300
C331	C33	0.345500	0.124700	0.561400
C341	C34	0.187700	0.886900	0.352600
H181	H18	0.215200	0.902300	0.320100
C351	C35	0.486800	0.875700	0.583500
C361	C36	0.096500	0.820800	0.363400
H191	H19	0.062400	0.792100	0.339000
C371	C37	0.406000	0.891400	0.547200
H201	H20	0.364000	0.866900	0.519700
C381	C38	0.172300	0.919500	0.719100
H211	H21	0.154800	0.908200	0.763900
C391	C39	0.412400	0.028400	0.583400
C401	C40	0.105200	0.841700	0.446900
H221	H22	0.077200	0.827300	0.479700
C411	C41	0.548200	0.911300	0.623600
H231	H23	0.604400	0.901200	0.648500
C421	C42	0.156500	0.884800	0.482000
C431	C43	0.443700	0.974400	0.588000
C441	C44	0.506000	0.818800	0.574300
O91	O9	0.345900	0.214600	0.543400
O101	O10	0.228400	0.177200	0.534100
O111	O11	0.176200	0.839200	0.186300
O121	O12	0.099700	0.776000	0.202400
O131	O13	0.580200	0.809500	0.585600
C451	C45	0.138400	0.818100	0.229900
O141	O14	0.449800	0.786500	0.555600
C461	C46	0.148800	0.890100	0.635600
H241	H24	0.119000	0.859400	0.626200
C471	C47	0.247300	0.995400	0.826900
C481	C48	0.217400	0.961600	0.735500
O151	O15	0.202300	0.988800	0.868500
O161	O16	0.305600	0.023500	0.843300
U31	U3	0.353230	0.734700	0.922870
Cu31	Cu3	0.240340	0.471130	0.014030
C491	C49	0.067900	0.619600	0.899500
H251	H25	0.032900	0.648300	0.882600
N91	N9	0.304900	0.406900	0.067900
C501	C50	0.034800	0.570800	0.886300
H261	H26	0.976600	0.566100	0.856900
N101	N10	0.283100	0.454700	0.914300
C511	C51	0.203500	0.581700	0.966000
H271	H27	0.261900	0.585400	0.992700
N111	N11	0.117000	0.439900	0.951700
C521	C52	0.971200	0.461000	0.872000
H281	H28	0.929400	0.485400	0.843400
N121	N12	0.170500	0.534200	0.955700
C531	C53	0.361000	0.342700	0.183800
C541	C54	0.196800	0.676700	0.954900
C551	C55	0.327200	0.409800	0.929700
C561	C56	0.260200	0.479500	0.833900
H291	H29	0.228500	0.509500	0.823700
C571	C57	0.154500	0.624700	0.938600
C581	C58	0.312300	0.386900	0.147400
H301	H30	0.284800	0.402300	0.179900
C591	C59	0.013200	0.375700	0.916500
C601	C60	0.403500	0.320800	0.136600
H311	H31	0.437600	0.292100	0.161000
C611	C61	0.094000	0.391400	0.952800
H321	H32	0.136000	0.366900	0.980300
C621	C62	0.327700	0.419500	0.780900
H331	H33	0.345200	0.408200	0.736100
C631	C63	0.087600	0.528400	0.916600
C641	C64	0.394800	0.341700	0.053100
H341	H34	0.422800	0.327300	0.020300
C651	C65	0.951800	0.411300	0.876400
H351	H35	0.895600	0.401200	0.851500
C661	C66	0.343500	0.384800	0.018000
C671	C67	0.056300	0.474400	0.912000
C681	C68	0.994000	0.318800	0.925700
O171	O17	0.154100	0.714600	0.956600
O181	O18	0.271600	0.677200	0.965900
O191	O19	0.323800	0.339200	0.313700
O201	O20	0.400300	0.276000	0.297600
O211	O21	0.919800	0.309500	0.914400
C691	C69	0.361600	0.318100	0.270100
O221	O22	0.050200	0.286500	0.944400
C701	C70	0.351200	0.390100	0.864400
H361	H36	0.381000	0.359400	0.873800
C711	C71	0.252700	0.495400	0.673100
C721	C72	0.282600	0.461600	0.764500
O231	O23	0.297700	0.488800	0.631500
O241	O24	0.194400	0.523500	0.656700
U41	U4	0.853230	0.234700	0.922870
Cu41	Cu4	0.740340	0.971130	0.014030
C731	C73	0.567900	0.119600	0.899500
H371	H37	0.532900	0.148300	0.882600
N131	N13	0.804900	0.906900	0.067900
C741	C74	0.534800	0.070800	0.886300
H381	H38	0.476600	0.066100	0.856900
N141	N14	0.783100	0.954700	0.914300
C751	C75	0.703500	0.081700	0.966000
H391	H39	0.761900	0.085400	0.992700
N151	N15	0.617000	0.939900	0.951700
C761	C76	0.471200	0.961000	0.872000
H401	H40	0.429400	0.985400	0.843400
N161	N16	0.670500	0.034200	0.955700
C771	C77	0.861000	0.842700	0.183800
C781	C78	0.696800	0.176700	0.954900
C791	C79	0.827200	0.909800	0.929700
C801	C80	0.760200	0.979500	0.833900
H411	H41	0.728500	0.009500	0.823700
C811	C81	0.654500	0.124700	0.938600
C821	C82	0.812300	0.886900	0.147400
H421	H42	0.784800	0.902300	0.179900
C831	C83	0.513200	0.875700	0.916500
C841	C84	0.903500	0.820800	0.136600
H431	H43	0.937600	0.792100	0.161000
C851	C85	0.594000	0.891400	0.952800
H441	H44	0.636000	0.866900	0.980300
C861	C86	0.827700	0.919500	0.780900
H451	H45	0.845200	0.908200	0.736100
C871	C87	0.587600	0.028400	0.916600
C881	C88	0.894800	0.841700	0.053100
H461	H46	0.922800	0.827300	0.020300
C891	C89	0.451800	0.911300	0.876400
H471	H47	0.395600	0.901200	0.851500
C901	C90	0.843500	0.884800	0.018000
C911	C91	0.556300	0.974400	0.912000
C921	C92	0.494000	0.818800	0.925700
O251	O25	0.654100	0.214600	0.956600
O261	O26	0.771600	0.177200	0.965900
O271	O27	0.823800	0.839200	0.313700
O281	O28	0.900300	0.776000	0.297600
O291	O29	0.419800	0.809500	0.914400
C931	C93	0.861600	0.818100	0.270100
O301	O30	0.550200	0.786500	0.944400
C941	C94	0.851200	0.890100	0.864400
H481	H48	0.881000	0.859400	0.873800
C951	C95	0.752700	0.995400	0.673100
C961	C96	0.782600	0.961600	0.764500
O311	O31	0.797700	0.988800	0.631500
O321	O32	0.694400	0.023500	0.656700
U51	U5	0.353230	0.265300	0.422870
Cu51	Cu5	0.240340	0.528870	0.514030
C971	C97	0.067900	0.380400	0.399500
H491	H49	0.032900	0.351700	0.382600
N171	N17	0.304900	0.593100	0.567900
C981	C98	0.034800	0.429200	0.386300
H501	H50	0.976600	0.433900	0.356900
N181	N18	0.283100	0.545300	0.414300
C991	C99	0.203500	0.418300	0.466000
H511	H51	0.261900	0.414600	0.492700
N191	N19	0.117000	0.560100	0.451700
C1001	C100	0.971200	0.539000	0.372000
H521	H52	0.929400	0.514600	0.343400
N201	N20	0.170500	0.465800	0.455700
C1011	C101	0.361000	0.657300	0.683800
C1021	C102	0.196800	0.323300	0.454900
C1031	C103	0.327200	0.590200	0.429700
C1041	C104	0.260200	0.520500	0.333900
H531	H53	0.228500	0.490500	0.323700
C1051	C105	0.154500	0.375300	0.438600
C1061	C106	0.312300	0.613100	0.647400
H541	H54	0.284800	0.597700	0.679900
C1071	C107	0.013200	0.624300	0.416500
C1081	C108	0.403500	0.679200	0.636600
H551	H55	0.437600	0.707900	0.661000
C1091	C109	0.094000	0.608600	0.452800
H561	H56	0.136000	0.633100	0.480300
C1101	C110	0.327700	0.580500	0.280900
H571	H57	0.345200	0.591800	0.236100
C1111	C111	0.087600	0.471600	0.416600
C1121	C112	0.394800	0.658300	0.553100
H581	H58	0.422800	0.672700	0.520300
C1131	C113	0.951800	0.588700	0.376400
H591	H59	0.895600	0.598800	0.351500
C1141	C114	0.343500	0.615200	0.518000
C1151	C115	0.056300	0.525600	0.412000
C1161	C116	0.994000	0.681200	0.425700
O331	O33	0.154100	0.285400	0.456600
O341	O34	0.271600	0.322800	0.465900
O351	O35	0.323800	0.660800	0.813700
O361	O36	0.400300	0.724000	0.797600
O371	O37	0.919800	0.690500	0.414400
C1171	C117	0.361600	0.681900	0.770100
O381	O38	0.050200	0.713500	0.444400
C1181	C118	0.351200	0.609900	0.364400
H601	H60	0.381000	0.640600	0.373800
C1191	C119	0.252700	0.504600	0.173100
C1201	C120	0.282600	0.538400	0.264500
O391	O39	0.297700	0.511200	0.131500
O401	O40	0.194400	0.476500	0.156700
U61	U6	0.853230	0.765300	0.422870
Cu61	Cu6	0.740340	0.028870	0.514030
C1211	C121	0.567900	0.880400	0.399500
H611	H61	0.532900	0.851700	0.382600
N211	N21	0.804900	0.093100	0.567900
C1221	C122	0.534800	0.929200	0.386300
H621	H62	0.476600	0.933900	0.356900
N221	N22	0.783100	0.045300	0.414300
C1231	C123	0.703500	0.918300	0.466000
H631	H63	0.761900	0.914600	0.492700
N231	N23	0.617000	0.060100	0.451700
C1241	C124	0.471200	0.039000	0.372000
H641	H64	0.429400	0.014600	0.343400
N241	N24	0.670500	0.965800	0.455700
C1251	C125	0.861000	0.157300	0.683800
C1261	C126	0.696800	0.823300	0.454900
C1271	C127	0.827200	0.090200	0.429700
C1281	C128	0.760200	0.020500	0.333900
H651	H65	0.728500	0.990500	0.323700
C1291	C129	0.654500	0.875300	0.438600
C1301	C130	0.812300	0.113100	0.647400
H661	H66	0.784800	0.097700	0.679900
C1311	C131	0.513200	0.124300	0.416500
C1321	C132	0.903500	0.179200	0.636600
H671	H67	0.937600	0.207900	0.661000
C1331	C133	0.594000	0.108600	0.452800
H681	H68	0.636000	0.133100	0.480300
C1341	C134	0.827700	0.080500	0.280900
H691	H69	0.845200	0.091800	0.236100
C1351	C135	0.587600	0.971600	0.416600
C1361	C136	0.894800	0.158300	0.553100
H701	H70	0.922800	0.172700	0.520300
C1371	C137	0.451800	0.088700	0.376400
H711	H71	0.395600	0.098800	0.351500
C1381	C138	0.843500	0.115200	0.518000
C1391	C139	0.556300	0.025600	0.412000
C1401	C140	0.494000	0.181200	0.425700
O411	O41	0.654100	0.785400	0.456600
O421	O42	0.771600	0.822800	0.465900
O431	O43	0.823800	0.160800	0.813700
O441	O44	0.900300	0.224000	0.797600
O451	O45	0.419800	0.190500	0.414400
C1411	C141	0.861600	0.181900	0.770100
O461	O46	0.550200	0.213500	0.444400
C1421	C142	0.851200	0.109900	0.364400
H721	H72	0.881000	0.140600	0.373800
C1431	C143	0.752700	0.004600	0.173100
C1441	C144	0.782600	0.038400	0.264500
O471	O47	0.797700	0.011200	0.131500
O481	O48	0.694400	0.976500	0.156700
U71	U7	0.646770	0.265300	0.077130
Cu71	Cu7	0.759660	0.528870	0.985970
C1451	C145	0.932100	0.380400	0.100500
H731	H73	0.967100	0.351700	0.117400
N251	N25	0.695100	0.593100	0.932100
C1461	C146	0.965200	0.429200	0.113700
H741	H74	0.023400	0.433900	0.143100
N261	N26	0.716900	0.545300	0.085700
C1471	C147	0.796500	0.418300	0.034000
H751	H75	0.738100	0.414600	0.007300
N271	N27	0.883000	0.560100	0.048300
C1481	C148	0.028800	0.539000	0.128000
H761	H76	0.070600	0.514600	0.156600
N281	N28	0.829500	0.465800	0.044300
C1491	C149	0.639000	0.657300	0.816200
C1501	C150	0.803200	0.323300	0.045100
C1511	C151	0.672800	0.590200	0.070300
C1521	C152	0.739800	0.520500	0.166100
H771	H77	0.771500	0.490500	0.176300
C1531	C153	0.845500	0.375300	0.061400
C1541	C154	0.687700	0.613100	0.852600
H781	H78	0.715200	0.597700	0.820100
C1551	C155	0.986800	0.624300	0.083500
C1561	C156	0.596500	0.679200	0.863400
H791	H79	0.562400	0.707900	0.839000
C1571	C157	0.906000	0.608600	0.047200
H801	H80	0.864000	0.633100	0.019700
C1581	C158	0.672300	0.580500	0.219100
H811	H81	0.654800	0.591800	0.263900
C1591	C159	0.912400	0.471600	0.083400
C1601	C160	0.605200	0.658300	0.946900
H821	H82	0.577200	0.672700	0.979700
C1611	C161	0.048200	0.588700	0.123600
H831	H83	0.104400	0.598800	0.148500
C1621	C162	0.656500	0.615200	0.982000
C1631	C163	0.943700	0.525600	0.088000
C1641	C164	0.006000	0.681200	0.074300
O491	O49	0.845900	0.285400	0.043400
O501	O50	0.728400	0.322800	0.034100
O511	O51	0.676200	0.660800	0.686300
O521	O52	0.599700	0.724000	0.702400
O531	O53	0.080200	0.690500	0.085600
C1651	C165	0.638400	0.681900	0.729900
O541	O54	0.949800	0.713500	0.055600
C1661	C166	0.648800	0.609900	0.135600
H841	H84	0.619000	0.640600	0.126200
C1671	C167	0.747300	0.504600	0.326900
C1681	C168	0.717400	0.538400	0.235500
O551	O55	0.702300	0.511200	0.368500
O561	O56	0.805600	0.476500	0.343300
U81	U8	0.146770	0.765300	0.077130
Cu81	Cu8	0.259660	0.028870	0.985970
C1691	C169	0.432100	0.880400	0.100500
H851	H85	0.467100	0.851700	0.117400
N291	N29	0.195100	0.093100	0.932100
C1701	C170	0.465200	0.929200	0.113700
H861	H86	0.523400	0.933900	0.143100
N301	N30	0.216900	0.045300	0.085700
C1711	C171	0.296500	0.918300	0.034000
H871	H87	0.238100	0.914600	0.007300
N311	N31	0.383000	0.060100	0.048300
C1721	C172	0.528800	0.039000	0.128000
H881	H88	0.570600	0.014600	0.156600
N321	N32	0.329500	0.965800	0.044300
C1731	C173	0.139000	0.157300	0.816200
C1741	C174	0.303200	0.823300	0.045100
C1751	C175	0.172800	0.090200	0.070300
C1761	C176	0.239800	0.020500	0.166100
H891	H89	0.271500	0.990500	0.176300
C1771	C177	0.345500	0.875300	0.061400
C1781	C178	0.187700	0.113100	0.852600
H901	H90	0.215200	0.097700	0.820100
C1791	C179	0.486800	0.124300	0.083500
C1801	C180	0.096500	0.179200	0.863400
H911	H91	0.062400	0.207900	0.839000
C1811	C181	0.406000	0.108600	0.047200
H921	H92	0.364000	0.133100	0.019700
C1821	C182	0.172300	0.080500	0.219100
H931	H93	0.154800	0.091800	0.263900
C1831	C183	0.412400	0.971600	0.083400
C1841	C184	0.105200	0.158300	0.946900
H941	H94	0.077200	0.172700	0.979700
C1851	C185	0.548200	0.088700	0.123600
H951	H95	0.604400	0.098800	0.148500
C1861	C186	0.156500	0.115200	0.982000
C1871	C187	0.443700	0.025600	0.088000
C1881	C188	0.506000	0.181200	0.074300
O571	O57	0.345900	0.785400	0.043400
O581	O58	0.228400	0.822800	0.034100
O591	O59	0.176200	0.160800	0.686300
O601	O60	0.099700	0.224000	0.702400
O611	O61	0.580200	0.190500	0.085600
C1891	C189	0.138400	0.181900	0.729900
O621	O62	0.449800	0.213500	0.055600
C1901	C190	0.148800	0.109900	0.135600
H961	H96	0.119000	0.140600	0.126200
C1911	C191	0.247300	0.004600	0.326900
C1921	C192	0.217400	0.038400	0.235500
O631	O63	0.202300	0.011200	0.368500
O641	O64	0.305600	0.976500	0.343300
