data_YANBAR01_clean_PM
_symmetry_space_group_name_H-M	'P1'
_cell_length_a	9.929200
_cell_length_b	11.383400
_cell_length_c	14.432400
_cell_angle_alpha	91.250000
_cell_angle_beta	90.000000
_cell_angle_gamma	90.000000
_symmetry_Int_Tables_number 1

loop_
_symmetry_equiv_pos_as_xyz
'x,y,z'

loop_
_atom_site_label
_atom_site_type_symbol
_atom_site_fract_x
_atom_site_fract_y
_atom_site_fract_z
Co11	Co1	0.920790	0.754770	0.633390
Co21	Co2	0.612360	0.760690	0.689720
Co31	Co3	0.420790	0.745230	0.866610
Co41	Co4	0.112360	0.739310	0.810280
Co51	Co5	0.079210	0.245230	0.366610
Co61	Co6	0.387640	0.239310	0.310280
Co71	Co7	0.579210	0.254770	0.133390
Co81	Co8	0.887640	0.260690	0.189720
Co91	Co9	0.000000	0.500000	0.500000
Co101	Co10	0.500000	0.000000	0.000000
Co111	Co11	0.000000	0.000000	0.500000
Co121	Co12	0.500000	0.500000	0.000000
H11	H1	0.618400	0.561400	0.537500
H21	H2	0.212100	0.966700	0.725700
H31	H3	0.755600	0.841900	0.874500
H41	H4	0.961000	0.524300	0.232600
H51	H5	0.713500	0.005000	0.520600
H61	H6	0.156700	0.696000	0.426700
H71	H7	0.118400	0.938600	0.962500
H81	H8	0.712100	0.533300	0.774300
H91	H9	0.255600	0.658100	0.625500
H101	H10	0.461000	0.975700	0.267400
H111	H11	0.213500	0.495000	0.979400
H121	H12	0.656700	0.804000	0.073300
H131	H13	0.381600	0.438600	0.462500
H141	H14	0.787900	0.033300	0.274300
H151	H15	0.244400	0.158100	0.125500
H161	H16	0.039000	0.475700	0.767400
H171	H17	0.286500	0.995000	0.479400
H181	H18	0.843300	0.304000	0.573300
H191	H19	0.881600	0.061400	0.037500
H201	H20	0.287900	0.466700	0.225700
H211	H21	0.744400	0.341900	0.374500
H221	H22	0.539000	0.024300	0.732600
H231	H23	0.786500	0.505000	0.020600
H241	H24	0.343300	0.196000	0.926700
C11	C1	0.713150	0.577870	0.546590
C21	C2	0.141270	0.945190	0.681990
C31	C3	0.828320	0.817310	0.834390
C41	C4	0.984650	0.482630	0.288820
C51	C5	0.727000	0.937820	0.559710
C61	C6	0.100270	0.741070	0.465980
C71	C7	0.213150	0.922130	0.953410
C81	C8	0.641270	0.554810	0.818010
C91	C9	0.328320	0.682690	0.665610
C101	C10	0.484650	0.017370	0.211180
C111	C11	0.227000	0.562180	0.940290
C121	C12	0.600270	0.758930	0.034020
C131	C13	0.286850	0.422130	0.453410
C141	C14	0.858730	0.054810	0.318010
C151	C15	0.171680	0.182690	0.165610
C161	C16	0.015350	0.517370	0.711180
C171	C17	0.273000	0.062180	0.440290
C181	C18	0.899730	0.258930	0.534020
C191	C19	0.786850	0.077870	0.046590
C201	C20	0.358730	0.445190	0.181990
C211	C21	0.671680	0.317310	0.334390
C221	C22	0.515350	0.982630	0.788820
C231	C23	0.773000	0.437820	0.059710
C241	C24	0.399730	0.241070	0.965980
O11	O1	0.743610	0.657260	0.607450
O21	O2	0.793610	0.521410	0.497670
O31	O3	0.081010	0.848150	0.696520
O41	O4	0.120410	0.011030	0.616650
O51	O5	0.939860	0.802930	0.871310
O61	O6	0.801460	0.804160	0.748080
O71	O7	0.993630	0.370980	0.281830
O81	O8	0.001740	0.542710	0.359960
O91	O9	0.626750	0.895060	0.597900
O101	O10	0.848350	0.901350	0.565700
O111	O11	0.103520	0.849090	0.458430
O121	O12	0.025640	0.684780	0.522690
O131	O13	0.243610	0.842740	0.892550
O141	O14	0.293610	0.978590	0.002330
O151	O15	0.581010	0.651850	0.803480
O161	O16	0.620410	0.488970	0.883350
O171	O17	0.439860	0.697070	0.628690
O181	O18	0.301460	0.695840	0.751920
O191	O19	0.493630	0.129020	0.218170
O201	O20	0.501740	0.957290	0.140040
O211	O21	0.126750	0.604940	0.902100
O221	O22	0.348350	0.598650	0.934300
O231	O23	0.603520	0.650910	0.041570
O241	O24	0.525640	0.815220	0.977310
O251	O25	0.256390	0.342740	0.392550
O261	O26	0.206390	0.478590	0.502330
O271	O27	0.918990	0.151850	0.303480
O281	O28	0.879590	0.988970	0.383350
O291	O29	0.060140	0.197070	0.128690
O301	O30	0.198540	0.195840	0.251920
O311	O31	0.006370	0.629020	0.718170
O321	O32	0.998260	0.457290	0.640040
O331	O33	0.373250	0.104940	0.402100
O341	O34	0.151650	0.098650	0.434300
O351	O35	0.896480	0.150910	0.541570
O361	O36	0.974360	0.315220	0.477310
O371	O37	0.756390	0.157260	0.107450
O381	O38	0.706390	0.021410	0.997670
O391	O39	0.418990	0.348150	0.196520
O401	O40	0.379590	0.511030	0.116650
O411	O41	0.560140	0.302930	0.371310
O421	O42	0.698540	0.304160	0.248080
O431	O43	0.506370	0.870980	0.781830
O441	O44	0.498260	0.042710	0.859960
O451	O45	0.873250	0.395060	0.097900
O461	O46	0.651650	0.401350	0.065700
O471	O47	0.396480	0.349090	0.958430
O481	O48	0.474360	0.184780	0.022690
