data_YAPMAF_clean_PM
_symmetry_space_group_name_H-M	'P1'
_cell_length_a	29.316200
_cell_length_b	29.316200
_cell_length_c	29.316200
_cell_angle_alpha	109.471000
_cell_angle_beta	109.471000
_cell_angle_gamma	109.471000
_symmetry_Int_Tables_number 1

loop_
_symmetry_equiv_pos_as_xyz
'x,y,z'

loop_
_atom_site_label
_atom_site_type_symbol
_atom_site_fract_x
_atom_site_fract_y
_atom_site_fract_z
Ni11	Ni1	0.561270	0.140880	0.718070
Ni21	Ni2	0.922810	0.843200	0.781930
Ni31	Ni3	0.577190	0.359120	0.920390
Ni41	Ni4	0.938730	0.656800	0.579610
Ni51	Ni5	0.420390	0.577190	0.859120
Ni61	Ni6	0.079610	0.938730	0.156800
Ni71	Ni7	0.218070	0.561270	0.640880
Ni81	Ni8	0.281930	0.922810	0.343200
Ni91	Ni9	0.843200	0.281930	0.422810
Ni101	Ni10	0.140880	0.218070	0.061270
Ni111	Ni11	0.656800	0.079610	0.438730
Ni121	Ni12	0.359120	0.420390	0.077190
Ni131	Ni13	0.359120	0.938730	0.781930
Ni141	Ni14	0.656800	0.577190	0.718070
Ni151	Ni15	0.140880	0.922810	0.579610
Ni161	Ni16	0.843200	0.561270	0.920390
Ni171	Ni17	0.922810	0.079610	0.640880
Ni181	Ni18	0.561270	0.420390	0.343200
Ni191	Ni19	0.938730	0.281930	0.859120
Ni201	Ni20	0.577190	0.218070	0.156800
Ni211	Ni21	0.218070	0.656800	0.077190
Ni221	Ni22	0.281930	0.359120	0.438730
Ni231	Ni23	0.420390	0.843200	0.061270
Ni241	Ni24	0.079610	0.140880	0.422810
Ni251	Ni25	0.438730	0.859120	0.281930
Ni261	Ni26	0.077190	0.156800	0.218070
Ni271	Ni27	0.422810	0.640880	0.079610
Ni281	Ni28	0.061270	0.343200	0.420390
Ni291	Ni29	0.579610	0.422810	0.140880
Ni301	Ni30	0.920390	0.061270	0.843200
Ni311	Ni31	0.781930	0.438730	0.359120
Ni321	Ni32	0.718070	0.077190	0.656800
Ni331	Ni33	0.156800	0.718070	0.577190
Ni341	Ni34	0.859120	0.781930	0.938730
Ni351	Ni35	0.343200	0.920390	0.561270
Ni361	Ni36	0.640880	0.579610	0.922810
Ni371	Ni37	0.640880	0.061270	0.218070
Ni381	Ni38	0.343200	0.422810	0.281930
Ni391	Ni39	0.859120	0.077190	0.420390
Ni401	Ni40	0.156800	0.438730	0.079610
Ni411	Ni41	0.077190	0.920390	0.359120
Ni421	Ni42	0.438730	0.579610	0.656800
Ni431	Ni43	0.061270	0.718070	0.140880
Ni441	Ni44	0.422810	0.781930	0.843200
Ni451	Ni45	0.781930	0.343200	0.922810
Ni461	Ni46	0.718070	0.640880	0.561270
Ni471	Ni47	0.579610	0.156800	0.938730
Ni481	Ni48	0.920390	0.859120	0.577190
H11	H1	0.668900	0.224600	0.849500
H21	H2	0.444100	0.030400	0.677300
H31	H3	0.399600	0.014000	0.525800
H41	H4	0.739300	0.314400	0.793500
H51	H5	0.467600	0.111200	0.553000
H61	H6	0.639300	0.234200	0.669700
H71	H7	0.875100	0.819400	0.650500
H81	H8	0.853100	0.766800	0.822700
H91	H9	0.988200	0.873800	0.974200
H101	H10	0.020900	0.945800	0.706500
H111	H11	0.058200	0.914600	0.947000
H121	H12	0.064500	0.969600	0.830300
H131	H13	0.624900	0.275400	0.944300
H141	H14	0.646900	0.469600	0.913700
H151	H15	0.511800	0.486000	0.885600
H161	H16	0.479100	0.185600	0.924900
H171	H17	0.441800	0.388800	0.856400
H181	H18	0.435500	0.265800	0.905100
H191	H19	0.831100	0.680600	0.555700
H201	H20	0.055900	0.733200	0.586300
H211	H21	0.100400	0.626200	0.614400
H221	H22	0.760700	0.554200	0.575100
H231	H23	0.032400	0.585400	0.643600
H241	H24	0.860700	0.530400	0.594900
H251	H25	0.444300	0.624900	0.775400
H261	H26	0.413700	0.646900	0.969600
H271	H27	0.385600	0.511800	0.986000
H281	H28	0.424900	0.479100	0.685600
H291	H29	0.356400	0.441800	0.888800
H301	H30	0.405100	0.435500	0.765800
H311	H31	0.055700	0.831100	0.180600
H321	H32	0.086300	0.055900	0.233200
H331	H33	0.114400	0.100400	0.126200
H341	H34	0.075100	0.760700	0.054200
H351	H35	0.143600	0.032400	0.085400
H361	H36	0.094900	0.860700	0.030400
H371	H37	0.349500	0.668900	0.724600
H381	H38	0.177300	0.444100	0.530400
H391	H39	0.025800	0.399600	0.514000
H401	H40	0.293500	0.739300	0.814400
H411	H41	0.053000	0.467600	0.611200
H421	H42	0.169700	0.639300	0.734200
H431	H43	0.150500	0.875100	0.319400
H441	H44	0.322700	0.853100	0.266800
H451	H45	0.474200	0.988200	0.373800
H461	H46	0.206500	0.020900	0.445800
H471	H47	0.447000	0.058200	0.414600
H481	H48	0.330300	0.064500	0.469600
H491	H49	0.819400	0.150500	0.375100
H501	H50	0.766800	0.322700	0.353100
H511	H51	0.873800	0.474200	0.488200
H521	H52	0.945800	0.206500	0.520900
H531	H53	0.914600	0.447000	0.558200
H541	H54	0.969600	0.330300	0.564500
H551	H55	0.224600	0.349500	0.168900
H561	H56	0.030400	0.177300	0.944100
H571	H57	0.014000	0.025800	0.899600
H581	H58	0.314400	0.293500	0.239300
H591	H59	0.111200	0.053000	0.967600
H601	H60	0.234200	0.169700	0.139300
H611	H61	0.680600	0.055700	0.331100
H621	H62	0.733200	0.086300	0.555900
H631	H63	0.626200	0.114400	0.600400
H641	H64	0.554200	0.075100	0.260700
H651	H65	0.585400	0.143600	0.532400
H661	H66	0.530400	0.094900	0.360700
H671	H67	0.275400	0.444300	0.124900
H681	H68	0.469600	0.413700	0.146900
H691	H69	0.486000	0.385600	0.011800
H701	H70	0.185600	0.424900	0.979100
H711	H71	0.388800	0.356400	0.941800
H721	H72	0.265800	0.405100	0.935500
H731	H73	0.275400	0.831100	0.650500
H741	H74	0.469600	0.055900	0.822700
H751	H75	0.486000	0.100400	0.974200
H761	H76	0.185600	0.760700	0.706500
H771	H77	0.388800	0.032400	0.947000
H781	H78	0.265800	0.860700	0.830300
H791	H79	0.680600	0.624900	0.849500
H801	H80	0.733200	0.646900	0.677300
H811	H81	0.626200	0.511800	0.525800
H821	H82	0.554200	0.479100	0.793500
H831	H83	0.585400	0.441800	0.553000
H841	H84	0.530400	0.435500	0.669700
H851	H85	0.224600	0.875100	0.555700
H861	H86	0.030400	0.853100	0.586300
H871	H87	0.014000	0.988200	0.614400
H881	H88	0.314400	0.020900	0.575100
H891	H89	0.111200	0.058200	0.643600
H901	H90	0.234200	0.064500	0.594900
H911	H91	0.819400	0.668900	0.944300
H921	H92	0.766800	0.444100	0.913700
H931	H93	0.873800	0.399600	0.885600
H941	H94	0.945800	0.739300	0.924900
H951	H95	0.914600	0.467600	0.856400
H961	H96	0.969600	0.639300	0.905100
H971	H97	0.875100	0.055700	0.724600
H981	H98	0.853100	0.086300	0.530400
H991	H99	0.988200	0.114400	0.514000
H1001	H100	0.020900	0.075100	0.814400
H1011	H101	0.058200	0.143600	0.611200
H1021	H102	0.064500	0.094900	0.734200
H1031	H103	0.668900	0.444300	0.319400
H1041	H104	0.444100	0.413700	0.266800
H1051	H105	0.399600	0.385600	0.373800
H1061	H106	0.739300	0.424900	0.445800
H1071	H107	0.467600	0.356400	0.414600
H1081	H108	0.639300	0.405100	0.469600
H1091	H109	0.831100	0.150500	0.775400
H1101	H110	0.055900	0.322700	0.969600
H1111	H111	0.100400	0.474200	0.986000
H1121	H112	0.760700	0.206500	0.685600
H1131	H113	0.032400	0.447000	0.888800
H1141	H114	0.860700	0.330300	0.765800
H1151	H115	0.624900	0.349500	0.180600
H1161	H116	0.646900	0.177300	0.233200
H1171	H117	0.511800	0.025800	0.126200
H1181	H118	0.479100	0.293500	0.054200
H1191	H119	0.441800	0.053000	0.085400
H1201	H120	0.435500	0.169700	0.030400
H1211	H121	0.349500	0.680600	0.124900
H1221	H122	0.177300	0.733200	0.146900
H1231	H123	0.025800	0.626200	0.011800
H1241	H124	0.293500	0.554200	0.979100
H1251	H125	0.053000	0.585400	0.941800
H1261	H126	0.169700	0.530400	0.935500
H1271	H127	0.150500	0.275400	0.331100
H1281	H128	0.322700	0.469600	0.555900
H1291	H129	0.474200	0.486000	0.600400
H1301	H130	0.206500	0.185600	0.260700
H1311	H131	0.447000	0.388800	0.532400
H1321	H132	0.330300	0.265800	0.360700
H1331	H133	0.444300	0.819400	0.168900
H1341	H134	0.413700	0.766800	0.944100
H1351	H135	0.385600	0.873800	0.899600
H1361	H136	0.424900	0.945800	0.239300
H1371	H137	0.356400	0.914600	0.967600
H1381	H138	0.405100	0.969600	0.139300
H1391	H139	0.055700	0.224600	0.375100
H1401	H140	0.086300	0.030400	0.353100
H1411	H141	0.114400	0.014000	0.488200
H1421	H142	0.075100	0.314400	0.520900
H1431	H143	0.143600	0.111200	0.558200
H1441	H144	0.094900	0.234200	0.564500
H1451	H145	0.331100	0.775400	0.150500
H1461	H146	0.555900	0.969600	0.322700
H1471	H147	0.600400	0.986000	0.474200
H1481	H148	0.260700	0.685600	0.206500
H1491	H149	0.532400	0.888800	0.447000
H1501	H150	0.360700	0.765800	0.330300
H1511	H151	0.124900	0.180600	0.349500
H1521	H152	0.146900	0.233200	0.177300
H1531	H153	0.011800	0.126200	0.025800
H1541	H154	0.979100	0.054200	0.293500
H1551	H155	0.941800	0.085400	0.053000
H1561	H156	0.935500	0.030400	0.169700
H1571	H157	0.375100	0.724600	0.055700
H1581	H158	0.353100	0.530400	0.086300
H1591	H159	0.488200	0.514000	0.114400
H1601	H160	0.520900	0.814400	0.075100
H1611	H161	0.558200	0.611200	0.143600
H1621	H162	0.564500	0.734200	0.094900
H1631	H163	0.168900	0.319400	0.444300
H1641	H164	0.944100	0.266800	0.413700
H1651	H165	0.899600	0.373800	0.385600
H1661	H166	0.239300	0.445800	0.424900
H1671	H167	0.967600	0.414600	0.356400
H1681	H168	0.139300	0.469600	0.405100
H1691	H169	0.555700	0.375100	0.224600
H1701	H170	0.586300	0.353100	0.030400
H1711	H171	0.614400	0.488200	0.014000
H1721	H172	0.575100	0.520900	0.314400
H1731	H173	0.643600	0.558200	0.111200
H1741	H174	0.594900	0.564500	0.234200
H1751	H175	0.944300	0.168900	0.819400
H1761	H176	0.913700	0.944100	0.766800
H1771	H177	0.885600	0.899600	0.873800
H1781	H178	0.924900	0.239300	0.945800
H1791	H179	0.856400	0.967600	0.914600
H1801	H180	0.905100	0.139300	0.969600
H1811	H181	0.650500	0.331100	0.275400
H1821	H182	0.822700	0.555900	0.469600
H1831	H183	0.974200	0.600400	0.486000
H1841	H184	0.706500	0.260700	0.185600
H1851	H185	0.947000	0.532400	0.388800
H1861	H186	0.830300	0.360700	0.265800
H1871	H187	0.849500	0.124900	0.680600
H1881	H188	0.677300	0.146900	0.733200
H1891	H189	0.525800	0.011800	0.626200
H1901	H190	0.793500	0.979100	0.554200
H1911	H191	0.553000	0.941800	0.585400
H1921	H192	0.669700	0.935500	0.530400
H1931	H193	0.180600	0.849500	0.624900
H1941	H194	0.233200	0.677300	0.646900
H1951	H195	0.126200	0.525800	0.511800
H1961	H196	0.054200	0.793500	0.479100
H1971	H197	0.085400	0.553000	0.441800
H1981	H198	0.030400	0.669700	0.435500
H1991	H199	0.775400	0.650500	0.831100
H2001	H200	0.969600	0.822700	0.055900
H2011	H201	0.986000	0.974200	0.100400
H2021	H202	0.685600	0.706500	0.760700
H2031	H203	0.888800	0.947000	0.032400
H2041	H204	0.765800	0.830300	0.860700
H2051	H205	0.319400	0.944300	0.668900
H2061	H206	0.266800	0.913700	0.444100
H2071	H207	0.373800	0.885600	0.399600
H2081	H208	0.445800	0.924900	0.739300
H2091	H209	0.414600	0.856400	0.467600
H2101	H210	0.469600	0.905100	0.639300
H2111	H211	0.724600	0.555700	0.875100
H2121	H212	0.530400	0.586300	0.853100
H2131	H213	0.514000	0.614400	0.988200
H2141	H214	0.814400	0.575100	0.020900
H2151	H215	0.611200	0.643600	0.058200
H2161	H216	0.734200	0.594900	0.064500
H2171	H217	0.724600	0.168900	0.349500
H2181	H218	0.530400	0.944100	0.177300
H2191	H219	0.514000	0.899600	0.025800
H2201	H220	0.814400	0.239300	0.293500
H2211	H221	0.611200	0.967600	0.053000
H2221	H222	0.734200	0.139300	0.169700
H2231	H223	0.319400	0.375100	0.150500
H2241	H224	0.266800	0.353100	0.322700
H2251	H225	0.373800	0.488200	0.474200
H2261	H226	0.445800	0.520900	0.206500
H2271	H227	0.414600	0.558200	0.447000
H2281	H228	0.469600	0.564500	0.330300
H2291	H229	0.775400	0.124900	0.444300
H2301	H230	0.969600	0.146900	0.413700
H2311	H231	0.986000	0.011800	0.385600
H2321	H232	0.685600	0.979100	0.424900
H2331	H233	0.888800	0.941800	0.356400
H2341	H234	0.765800	0.935500	0.405100
H2351	H235	0.180600	0.331100	0.055700
H2361	H236	0.233200	0.555900	0.086300
H2371	H237	0.126200	0.600400	0.114400
H2381	H238	0.054200	0.260700	0.075100
H2391	H239	0.085400	0.532400	0.143600
H2401	H240	0.030400	0.360700	0.094900
H2411	H241	0.124900	0.944300	0.275400
H2421	H242	0.146900	0.913700	0.469600
H2431	H243	0.011800	0.885600	0.486000
H2441	H244	0.979100	0.924900	0.185600
H2451	H245	0.941800	0.856400	0.388800
H2461	H246	0.935500	0.905100	0.265800
H2471	H247	0.331100	0.555700	0.680600
H2481	H248	0.555900	0.586300	0.733200
H2491	H249	0.600400	0.614400	0.626200
H2501	H250	0.260700	0.575100	0.554200
H2511	H251	0.532400	0.643600	0.585400
H2521	H252	0.360700	0.594900	0.530400
H2531	H253	0.168900	0.849500	0.224600
H2541	H254	0.944100	0.677300	0.030400
H2551	H255	0.899600	0.525800	0.014000
H2561	H256	0.239300	0.793500	0.314400
H2571	H257	0.967600	0.553000	0.111200
H2581	H258	0.139300	0.669700	0.234200
H2591	H259	0.375100	0.650500	0.819400
H2601	H260	0.353100	0.822700	0.766800
H2611	H261	0.488200	0.974200	0.873800
H2621	H262	0.520900	0.706500	0.945800
H2631	H263	0.558200	0.947000	0.914600
H2641	H264	0.564500	0.830300	0.969600
H2651	H265	0.650500	0.319400	0.875100
H2661	H266	0.822700	0.266800	0.853100
H2671	H267	0.974200	0.373800	0.988200
H2681	H268	0.706500	0.445800	0.020900
H2691	H269	0.947000	0.414600	0.058200
H2701	H270	0.830300	0.469600	0.064500
H2711	H271	0.849500	0.724600	0.668900
H2721	H272	0.677300	0.530400	0.444100
H2731	H273	0.525800	0.514000	0.399600
H2741	H274	0.793500	0.814400	0.739300
H2751	H275	0.553000	0.611200	0.467600
H2761	H276	0.669700	0.734200	0.639300
H2771	H277	0.555700	0.180600	0.831100
H2781	H278	0.586300	0.233200	0.055900
H2791	H279	0.614400	0.126200	0.100400
H2801	H280	0.575100	0.054200	0.760700
H2811	H281	0.643600	0.085400	0.032400
H2821	H282	0.594900	0.030400	0.860700
H2831	H283	0.944300	0.775400	0.624900
H2841	H284	0.913700	0.969600	0.646900
H2851	H285	0.885600	0.986000	0.511800
H2861	H286	0.924900	0.685600	0.479100
H2871	H287	0.856400	0.888800	0.441800
H2881	H288	0.905100	0.765800	0.435500
C11	C1	0.674900	0.237300	0.825000
C21	C2	0.444100	0.037400	0.647900
C31	C3	0.660000	0.242000	0.749200
C41	C4	0.418800	0.028000	0.565000
C51	C5	0.713500	0.286200	0.795500
C61	C6	0.468200	0.079500	0.603700
C71	C7	0.492000	0.117300	0.588100
C81	C8	0.628000	0.222000	0.692000
C91	C9	0.912300	0.849900	0.675000
C101	C10	0.889500	0.796200	0.852100
C111	C11	0.992800	0.910800	0.750800
C121	C12	0.963000	0.853800	0.935000
C131	C13	0.990700	0.918000	0.704500
C141	C14	0.975800	0.864500	0.896300
C151	C15	0.029200	0.903900	0.911900
C161	C16	0.030000	0.936000	0.808000
C171	C17	0.587700	0.262700	0.937600
C181	C18	0.610500	0.462600	0.906700
C191	C19	0.507200	0.258000	0.918000
C201	C20	0.537000	0.472000	0.890800
C211	C21	0.509300	0.213800	0.927300
C221	C22	0.524200	0.420500	0.888700
C231	C23	0.470800	0.382700	0.874700
C241	C24	0.470000	0.278000	0.906000
C251	C25	0.825100	0.650100	0.562400
C261	C26	0.055900	0.703800	0.593300
C271	C27	0.840000	0.589200	0.582000
C281	C28	0.081200	0.646200	0.609200
C291	C29	0.786500	0.582000	0.572700
C301	C30	0.031800	0.635500	0.611300
C311	C31	0.008000	0.596100	0.625300
C321	C32	0.872000	0.564000	0.594000
C331	C33	0.437600	0.587700	0.762700
C341	C34	0.406700	0.610500	0.962600
C351	C35	0.418000	0.507200	0.758000
C361	C36	0.390800	0.537000	0.972000
C371	C37	0.427300	0.509300	0.713800
C381	C38	0.388700	0.524200	0.920500
C391	C39	0.374700	0.470800	0.882700
C401	C40	0.406000	0.470000	0.778000
C411	C41	0.062400	0.825100	0.150100
C421	C42	0.093300	0.055900	0.203800
C431	C43	0.082000	0.840000	0.089200
C441	C44	0.109200	0.081200	0.146200
C451	C45	0.072700	0.786500	0.082000
C461	C46	0.111300	0.031800	0.135500
C471	C47	0.125300	0.008000	0.096100
C481	C48	0.094000	0.872000	0.064000
C491	C49	0.325000	0.674900	0.737300
C501	C50	0.147900	0.444100	0.537400
C511	C51	0.249200	0.660000	0.742000
C521	C52	0.065000	0.418800	0.528000
C531	C53	0.295500	0.713500	0.786200
C541	C54	0.103700	0.468200	0.579500
C551	C55	0.088100	0.492000	0.617300
C561	C56	0.192000	0.628000	0.722000
C571	C57	0.175000	0.912300	0.349900
C581	C58	0.352100	0.889500	0.296200
C591	C59	0.250800	0.992800	0.410800
C601	C60	0.435000	0.963000	0.353800
C611	C61	0.204500	0.990700	0.418000
C621	C62	0.396300	0.975800	0.364500
C631	C63	0.411900	0.029200	0.403900
C641	C64	0.308000	0.030000	0.436000
C651	C65	0.849900	0.175000	0.412300
C661	C66	0.796200	0.352100	0.389500
C671	C67	0.910800	0.250800	0.492800
C681	C68	0.853800	0.435000	0.463000
C691	C69	0.918000	0.204500	0.490700
C701	C70	0.864500	0.396300	0.475800
C711	C71	0.903900	0.411900	0.529200
C721	C72	0.936000	0.308000	0.530000
C731	C73	0.237300	0.325000	0.174900
C741	C74	0.037400	0.147900	0.944100
C751	C75	0.242000	0.249200	0.160000
C761	C76	0.028000	0.065000	0.918800
C771	C77	0.286200	0.295500	0.213500
C781	C78	0.079500	0.103700	0.968200
C791	C79	0.117300	0.088100	0.992000
C801	C80	0.222000	0.192000	0.128000
C811	C81	0.650100	0.062400	0.325100
C821	C82	0.703800	0.093300	0.555900
C831	C83	0.589200	0.082000	0.340000
C841	C84	0.646200	0.109200	0.581200
C851	C85	0.582000	0.072700	0.286500
C861	C86	0.635500	0.111300	0.531800
C871	C87	0.596100	0.125300	0.508000
C881	C88	0.564000	0.094000	0.372000
C891	C89	0.262700	0.437600	0.087700
C901	C90	0.462600	0.406700	0.110500
C911	C91	0.258000	0.418000	0.007200
C921	C92	0.472000	0.390800	0.037000
C931	C93	0.213800	0.427300	0.009300
C941	C94	0.420500	0.388700	0.024200
C951	C95	0.382700	0.374700	0.970800
C961	C96	0.278000	0.406000	0.970000
C971	C97	0.262700	0.825100	0.675000
C981	C98	0.462600	0.055900	0.852100
C991	C99	0.258000	0.840000	0.750800
C1001	C100	0.472000	0.081200	0.935000
C1011	C101	0.213800	0.786500	0.704500
C1021	C102	0.420500	0.031800	0.896300
C1031	C103	0.382700	0.008000	0.911900
C1041	C104	0.278000	0.872000	0.808000
C1051	C105	0.650100	0.587700	0.825000
C1061	C106	0.703800	0.610500	0.647900
C1071	C107	0.589200	0.507200	0.749200
C1081	C108	0.646200	0.537000	0.565000
C1091	C109	0.582000	0.509300	0.795500
C1101	C110	0.635500	0.524200	0.603700
C1111	C111	0.596100	0.470800	0.588100
C1121	C112	0.564000	0.470000	0.692000
C1131	C113	0.237300	0.912300	0.562400
C1141	C114	0.037400	0.889500	0.593300
C1151	C115	0.242000	0.992800	0.582000
C1161	C116	0.028000	0.963000	0.609200
C1171	C117	0.286200	0.990700	0.572700
C1181	C118	0.079500	0.975800	0.611300
C1191	C119	0.117300	0.029200	0.625300
C1201	C120	0.222000	0.030000	0.594000
C1211	C121	0.849900	0.674900	0.937600
C1221	C122	0.796200	0.444100	0.906700
C1231	C123	0.910800	0.660000	0.918000
C1241	C124	0.853800	0.418800	0.890800
C1251	C125	0.918000	0.713500	0.927300
C1261	C126	0.864500	0.468200	0.888700
C1271	C127	0.903900	0.492000	0.874700
C1281	C128	0.936000	0.628000	0.906000
C1291	C129	0.912300	0.062400	0.737300
C1301	C130	0.889500	0.093300	0.537400
C1311	C131	0.992800	0.082000	0.742000
C1321	C132	0.963000	0.109200	0.528000
C1331	C133	0.990700	0.072700	0.786200
C1341	C134	0.975800	0.111300	0.579500
C1351	C135	0.029200	0.125300	0.617300
C1361	C136	0.030000	0.094000	0.722000
C1371	C137	0.674900	0.437600	0.349900
C1381	C138	0.444100	0.406700	0.296200
C1391	C139	0.660000	0.418000	0.410800
C1401	C140	0.418800	0.390800	0.353800
C1411	C141	0.713500	0.427300	0.418000
C1421	C142	0.468200	0.388700	0.364500
C1431	C143	0.492000	0.374700	0.403900
C1441	C144	0.628000	0.406000	0.436000
C1451	C145	0.825100	0.175000	0.762700
C1461	C146	0.055900	0.352100	0.962600
C1471	C147	0.840000	0.250800	0.758000
C1481	C148	0.081200	0.435000	0.972000
C1491	C149	0.786500	0.204500	0.713800
C1501	C150	0.031800	0.396300	0.920500
C1511	C151	0.008000	0.411900	0.882700
C1521	C152	0.872000	0.308000	0.778000
C1531	C153	0.587700	0.325000	0.150100
C1541	C154	0.610500	0.147900	0.203800
C1551	C155	0.507200	0.249200	0.089200
C1561	C156	0.537000	0.065000	0.146200
C1571	C157	0.509300	0.295500	0.082000
C1581	C158	0.524200	0.103700	0.135500
C1591	C159	0.470800	0.088100	0.096100
C1601	C160	0.470000	0.192000	0.064000
C1611	C161	0.325000	0.650100	0.087700
C1621	C162	0.147900	0.703800	0.110500
C1631	C163	0.249200	0.589200	0.007200
C1641	C164	0.065000	0.646200	0.037000
C1651	C165	0.295500	0.582000	0.009300
C1661	C166	0.103700	0.635500	0.024200
C1671	C167	0.088100	0.596100	0.970800
C1681	C168	0.192000	0.564000	0.970000
C1691	C169	0.175000	0.262700	0.325100
C1701	C170	0.352100	0.462600	0.555900
C1711	C171	0.250800	0.258000	0.340000
C1721	C172	0.435000	0.472000	0.581200
C1731	C173	0.204500	0.213800	0.286500
C1741	C174	0.396300	0.420500	0.531800
C1751	C175	0.411900	0.382700	0.508000
C1761	C176	0.308000	0.278000	0.372000
C1771	C177	0.437600	0.849900	0.174900
C1781	C178	0.406700	0.796200	0.944100
C1791	C179	0.418000	0.910800	0.160000
C1801	C180	0.390800	0.853800	0.918800
C1811	C181	0.427300	0.918000	0.213500
C1821	C182	0.388700	0.864500	0.968200
C1831	C183	0.374700	0.903900	0.992000
C1841	C184	0.406000	0.936000	0.128000
C1851	C185	0.062400	0.237300	0.412300
C1861	C186	0.093300	0.037400	0.389500
C1871	C187	0.082000	0.242000	0.492800
C1881	C188	0.109200	0.028000	0.463000
C1891	C189	0.072700	0.286200	0.490700
C1901	C190	0.111300	0.079500	0.475800
C1911	C191	0.125300	0.117300	0.529200
C1921	C192	0.094000	0.222000	0.530000
C1931	C193	0.325100	0.762700	0.175000
C1941	C194	0.555900	0.962600	0.352100
C1951	C195	0.340000	0.758000	0.250800
C1961	C196	0.581200	0.972000	0.435000
C1971	C197	0.286500	0.713800	0.204500
C1981	C198	0.531800	0.920500	0.396300
C1991	C199	0.508000	0.882700	0.411900
C2001	C200	0.372000	0.778000	0.308000
C2011	C201	0.087700	0.150100	0.325000
C2021	C202	0.110500	0.203800	0.147900
C2031	C203	0.007200	0.089200	0.249200
C2041	C204	0.037000	0.146200	0.065000
C2051	C205	0.009300	0.082000	0.295500
C2061	C206	0.024200	0.135500	0.103700
C2071	C207	0.970800	0.096100	0.088100
C2081	C208	0.970000	0.064000	0.192000
C2091	C209	0.412300	0.737300	0.062400
C2101	C210	0.389500	0.537400	0.093300
C2111	C211	0.492800	0.742000	0.082000
C2121	C212	0.463000	0.528000	0.109200
C2131	C213	0.490700	0.786200	0.072700
C2141	C214	0.475800	0.579500	0.111300
C2151	C215	0.529200	0.617300	0.125300
C2161	C216	0.530000	0.722000	0.094000
C2171	C217	0.174900	0.349900	0.437600
C2181	C218	0.944100	0.296200	0.406700
C2191	C219	0.160000	0.410800	0.418000
C2201	C220	0.918800	0.353800	0.390800
C2211	C221	0.213500	0.418000	0.427300
C2221	C222	0.968200	0.364500	0.388700
C2231	C223	0.992000	0.403900	0.374700
C2241	C224	0.128000	0.436000	0.406000
C2251	C225	0.562400	0.412300	0.237300
C2261	C226	0.593300	0.389500	0.037400
C2271	C227	0.582000	0.492800	0.242000
C2281	C228	0.609200	0.463000	0.028000
C2291	C229	0.572700	0.490700	0.286200
C2301	C230	0.611300	0.475800	0.079500
C2311	C231	0.625300	0.529200	0.117300
C2321	C232	0.594000	0.530000	0.222000
C2331	C233	0.937600	0.174900	0.849900
C2341	C234	0.906700	0.944100	0.796200
C2351	C235	0.918000	0.160000	0.910800
C2361	C236	0.890800	0.918800	0.853800
C2371	C237	0.927300	0.213500	0.918000
C2381	C238	0.888700	0.968200	0.864500
C2391	C239	0.874700	0.992000	0.903900
C2401	C240	0.906000	0.128000	0.936000
C2411	C241	0.675000	0.325100	0.262700
C2421	C242	0.852100	0.555900	0.462600
C2431	C243	0.750800	0.340000	0.258000
C2441	C244	0.935000	0.581200	0.472000
C2451	C245	0.704500	0.286500	0.213800
C2461	C246	0.896300	0.531800	0.420500
C2471	C247	0.911900	0.508000	0.382700
C2481	C248	0.808000	0.372000	0.278000
C2491	C249	0.825000	0.087700	0.650100
C2501	C250	0.647900	0.110500	0.703800
C2511	C251	0.749200	0.007200	0.589200
C2521	C252	0.565000	0.037000	0.646200
C2531	C253	0.795500	0.009300	0.582000
C2541	C254	0.603700	0.024200	0.635500
C2551	C255	0.588100	0.970800	0.596100
C2561	C256	0.692000	0.970000	0.564000
C2571	C257	0.150100	0.825000	0.587700
C2581	C258	0.203800	0.647900	0.610500
C2591	C259	0.089200	0.749200	0.507200
C2601	C260	0.146200	0.565000	0.537000
C2611	C261	0.082000	0.795500	0.509300
C2621	C262	0.135500	0.603700	0.524200
C2631	C263	0.096100	0.588100	0.470800
C2641	C264	0.064000	0.692000	0.470000
C2651	C265	0.762700	0.675000	0.825100
C2661	C266	0.962600	0.852100	0.055900
C2671	C267	0.758000	0.750800	0.840000
C2681	C268	0.972000	0.935000	0.081200
C2691	C269	0.713800	0.704500	0.786500
C2701	C270	0.920500	0.896300	0.031800
C2711	C271	0.882700	0.911900	0.008000
C2721	C272	0.778000	0.808000	0.872000
C2731	C273	0.349900	0.937600	0.674900
C2741	C274	0.296200	0.906700	0.444100
C2751	C275	0.410800	0.918000	0.660000
C2761	C276	0.353800	0.890800	0.418800
C2771	C277	0.418000	0.927300	0.713500
C2781	C278	0.364500	0.888700	0.468200
C2791	C279	0.403900	0.874700	0.492000
C2801	C280	0.436000	0.906000	0.628000
C2811	C281	0.737300	0.562400	0.912300
C2821	C282	0.537400	0.593300	0.889500
C2831	C283	0.742000	0.582000	0.992800
C2841	C284	0.528000	0.609200	0.963000
C2851	C285	0.786200	0.572700	0.990700
C2861	C286	0.579500	0.611300	0.975800
C2871	C287	0.617300	0.625300	0.029200
C2881	C288	0.722000	0.594000	0.030000
C2891	C289	0.737300	0.174900	0.325000
C2901	C290	0.537400	0.944100	0.147900
C2911	C291	0.742000	0.160000	0.249200
C2921	C292	0.528000	0.918800	0.065000
C2931	C293	0.786200	0.213500	0.295500
C2941	C294	0.579500	0.968200	0.103700
C2951	C295	0.617300	0.992000	0.088100
C2961	C296	0.722000	0.128000	0.192000
C2971	C297	0.349900	0.412300	0.175000
C2981	C298	0.296200	0.389500	0.352100
C2991	C299	0.410800	0.492800	0.250800
C3001	C300	0.353800	0.463000	0.435000
C3011	C301	0.418000	0.490700	0.204500
C3021	C302	0.364500	0.475800	0.396300
C3031	C303	0.403900	0.529200	0.411900
C3041	C304	0.436000	0.530000	0.308000
C3051	C305	0.762700	0.087700	0.437600
C3061	C306	0.962600	0.110500	0.406700
C3071	C307	0.758000	0.007200	0.418000
C3081	C308	0.972000	0.037000	0.390800
C3091	C309	0.713800	0.009300	0.427300
C3101	C310	0.920500	0.024200	0.388700
C3111	C311	0.882700	0.970800	0.374700
C3121	C312	0.778000	0.970000	0.406000
C3131	C313	0.150100	0.325100	0.062400
C3141	C314	0.203800	0.555900	0.093300
C3151	C315	0.089200	0.340000	0.082000
C3161	C316	0.146200	0.581200	0.109200
C3171	C317	0.082000	0.286500	0.072700
C3181	C318	0.135500	0.531800	0.111300
C3191	C319	0.096100	0.508000	0.125300
C3201	C320	0.064000	0.372000	0.094000
C3211	C321	0.087700	0.937600	0.262700
C3221	C322	0.110500	0.906700	0.462600
C3231	C323	0.007200	0.918000	0.258000
C3241	C324	0.037000	0.890800	0.472000
C3251	C325	0.009300	0.927300	0.213800
C3261	C326	0.024200	0.888700	0.420500
C3271	C327	0.970800	0.874700	0.382700
C3281	C328	0.970000	0.906000	0.278000
C3291	C329	0.325100	0.562400	0.650100
C3301	C330	0.555900	0.593300	0.703800
C3311	C331	0.340000	0.582000	0.589200
C3321	C332	0.581200	0.609200	0.646200
C3331	C333	0.286500	0.572700	0.582000
C3341	C334	0.531800	0.611300	0.635500
C3351	C335	0.508000	0.625300	0.596100
C3361	C336	0.372000	0.594000	0.564000
C3371	C337	0.174900	0.825000	0.237300
C3381	C338	0.944100	0.647900	0.037400
C3391	C339	0.160000	0.749200	0.242000
C3401	C340	0.918800	0.565000	0.028000
C3411	C341	0.213500	0.795500	0.286200
C3421	C342	0.968200	0.603700	0.079500
C3431	C343	0.992000	0.588100	0.117300
C3441	C344	0.128000	0.692000	0.222000
C3451	C345	0.412300	0.675000	0.849900
C3461	C346	0.389500	0.852100	0.796200
C3471	C347	0.492800	0.750800	0.910800
C3481	C348	0.463000	0.935000	0.853800
C3491	C349	0.490700	0.704500	0.918000
C3501	C350	0.475800	0.896300	0.864500
C3511	C351	0.529200	0.911900	0.903900
C3521	C352	0.530000	0.808000	0.936000
C3531	C353	0.675000	0.349900	0.912300
C3541	C354	0.852100	0.296200	0.889500
C3551	C355	0.750800	0.410800	0.992800
C3561	C356	0.935000	0.353800	0.963000
C3571	C357	0.704500	0.418000	0.990700
C3581	C358	0.896300	0.364500	0.975800
C3591	C359	0.911900	0.403900	0.029200
C3601	C360	0.808000	0.436000	0.030000
C3611	C361	0.825000	0.737300	0.674900
C3621	C362	0.647900	0.537400	0.444100
C3631	C363	0.749200	0.742000	0.660000
C3641	C364	0.565000	0.528000	0.418800
C3651	C365	0.795500	0.786200	0.713500
C3661	C366	0.603700	0.579500	0.468200
C3671	C367	0.588100	0.617300	0.492000
C3681	C368	0.692000	0.722000	0.628000
C3691	C369	0.562400	0.150100	0.825100
C3701	C370	0.593300	0.203800	0.055900
C3711	C371	0.582000	0.089200	0.840000
C3721	C372	0.609200	0.146200	0.081200
C3731	C373	0.572700	0.082000	0.786500
C3741	C374	0.611300	0.135500	0.031800
C3751	C375	0.625300	0.096100	0.008000
C3761	C376	0.594000	0.064000	0.872000
C3771	C377	0.937600	0.762700	0.587700
C3781	C378	0.906700	0.962600	0.610500
C3791	C379	0.918000	0.758000	0.507200
C3801	C380	0.890800	0.972000	0.537000
C3811	C381	0.927300	0.713800	0.509300
C3821	C382	0.888700	0.920500	0.524200
C3831	C383	0.874700	0.882700	0.470800
C3841	C384	0.906000	0.778000	0.470000
N11	N1	0.636100	0.210800	0.771100
N21	N2	0.723400	0.283300	0.843100
N31	N3	0.401880	0.000300	0.591780
N41	N4	0.483700	0.082900	0.656200
N51	N5	0.575000	0.180700	0.673500
N61	N6	0.545100	0.161600	0.615500
N71	N7	0.939700	0.865000	0.728900
N81	N8	0.940200	0.880300	0.656900
N91	N9	0.908520	0.810100	0.908220
N101	N10	0.926700	0.827500	0.843800
N111	N11	0.007200	0.901500	0.826500
N121	N12	0.046100	0.929600	0.884500
N131	N13	0.560300	0.289200	0.925300
N141	N14	0.559800	0.216700	0.940100
N151	N15	0.591480	0.499700	0.901580
N161	N16	0.573300	0.417100	0.900800
N171	N17	0.492800	0.319300	0.894300
N181	N18	0.453900	0.338400	0.883500
N191	N19	0.863900	0.635000	0.574700
N201	N20	0.776600	0.619700	0.559900
N211	N21	0.098120	0.689900	0.598420
N221	N22	0.016300	0.672500	0.599200
N231	N23	0.925000	0.598500	0.605700
N241	N24	0.954900	0.570400	0.616500
N251	N25	0.425300	0.560300	0.789200
N261	N26	0.440100	0.559800	0.716700
N271	N27	0.401580	0.591480	0.999700
N281	N28	0.400800	0.573300	0.917100
N291	N29	0.394300	0.492800	0.819300
N301	N30	0.383500	0.453900	0.838400
N311	N31	0.074700	0.863900	0.135000
N321	N32	0.059900	0.776600	0.119700
N331	N33	0.098420	0.098120	0.189900
N341	N34	0.099200	0.016300	0.172500
N351	N35	0.105700	0.925000	0.098500
N361	N36	0.116500	0.954900	0.070400
N371	N37	0.271100	0.636100	0.710800
N381	N38	0.343100	0.723400	0.783300
N391	N39	0.091780	0.401880	0.500300
N401	N40	0.156200	0.483700	0.582900
N411	N41	0.173500	0.575000	0.680700
N421	N42	0.115500	0.545100	0.661600
N431	N43	0.228900	0.939700	0.365000
N441	N44	0.156900	0.940200	0.380300
N451	N45	0.408220	0.908520	0.310100
N461	N46	0.343800	0.926700	0.327500
N471	N47	0.326500	0.007200	0.401500
N481	N48	0.384500	0.046100	0.429600
N491	N49	0.865000	0.228900	0.439700
N501	N50	0.880300	0.156900	0.440200
N511	N51	0.810100	0.408220	0.408520
N521	N52	0.827500	0.343800	0.426700
N531	N53	0.901500	0.326500	0.507200
N541	N54	0.929600	0.384500	0.546100
N551	N55	0.210800	0.271100	0.136100
N561	N56	0.283300	0.343100	0.223400
N571	N57	0.000300	0.091780	0.901880
N581	N58	0.082900	0.156200	0.983700
N591	N59	0.180700	0.173500	0.075000
N601	N60	0.161600	0.115500	0.045100
N611	N61	0.635000	0.074700	0.363900
N621	N62	0.619700	0.059900	0.276600
N631	N63	0.689900	0.098420	0.598120
N641	N64	0.672500	0.099200	0.516300
N651	N65	0.598500	0.105700	0.425000
N661	N66	0.570400	0.116500	0.454900
N671	N67	0.289200	0.425300	0.060300
N681	N68	0.216700	0.440100	0.059800
N691	N69	0.499700	0.401580	0.091480
N701	N70	0.417100	0.400800	0.073300
N711	N71	0.319300	0.394300	0.992800
N721	N72	0.338400	0.383500	0.953900
N731	N73	0.289200	0.863900	0.728900
N741	N74	0.216700	0.776600	0.656900
N751	N75	0.499700	0.098120	0.908220
N761	N76	0.417100	0.016300	0.843800
N771	N77	0.319300	0.925000	0.826500
N781	N78	0.338400	0.954900	0.884500
N791	N79	0.635000	0.560300	0.771100
N801	N80	0.619700	0.559800	0.843100
N811	N81	0.689900	0.591480	0.591780
N821	N82	0.672500	0.573300	0.656200
N831	N83	0.598500	0.492800	0.673500
N841	N84	0.570400	0.453900	0.615500
N851	N85	0.210800	0.939700	0.574700
N861	N86	0.283300	0.940200	0.559900
N871	N87	0.000300	0.908520	0.598420
N881	N88	0.082900	0.926700	0.599200
N891	N89	0.180700	0.007200	0.605700
N901	N90	0.161600	0.046100	0.616500
N911	N91	0.865000	0.636100	0.925300
N921	N92	0.880300	0.723400	0.940100
N931	N93	0.810100	0.401880	0.901580
N941	N94	0.827500	0.483700	0.900800
N951	N95	0.901500	0.575000	0.894300
N961	N96	0.929600	0.545100	0.883500
N971	N97	0.939700	0.074700	0.710800
N981	N98	0.940200	0.059900	0.783300
N991	N99	0.908520	0.098420	0.500300
N1001	N100	0.926700	0.099200	0.582900
N1011	N101	0.007200	0.105700	0.680700
N1021	N102	0.046100	0.116500	0.661600
N1031	N103	0.636100	0.425300	0.365000
N1041	N104	0.723400	0.440100	0.380300
N1051	N105	0.401880	0.401580	0.310100
N1061	N106	0.483700	0.400800	0.327500
N1071	N107	0.575000	0.394300	0.401500
N1081	N108	0.545100	0.383500	0.429600
N1091	N109	0.863900	0.228900	0.789200
N1101	N110	0.776600	0.156900	0.716700
N1111	N111	0.098120	0.408220	0.999700
N1121	N112	0.016300	0.343800	0.917100
N1131	N113	0.925000	0.326500	0.819300
N1141	N114	0.954900	0.384500	0.838400
N1151	N115	0.560300	0.271100	0.135000
N1161	N116	0.559800	0.343100	0.119700
N1171	N117	0.591480	0.091780	0.189900
N1181	N118	0.573300	0.156200	0.172500
N1191	N119	0.492800	0.173500	0.098500
N1201	N120	0.453900	0.115500	0.070400
N1211	N121	0.271100	0.635000	0.060300
N1221	N122	0.343100	0.619700	0.059800
N1231	N123	0.091780	0.689900	0.091480
N1241	N124	0.156200	0.672500	0.073300
N1251	N125	0.173500	0.598500	0.992800
N1261	N126	0.115500	0.570400	0.953900
N1271	N127	0.228900	0.289200	0.363900
N1281	N128	0.156900	0.216700	0.276600
N1291	N129	0.408220	0.499700	0.598120
N1301	N130	0.343800	0.417100	0.516300
N1311	N131	0.326500	0.319300	0.425000
N1321	N132	0.384500	0.338400	0.454900
N1331	N133	0.425300	0.865000	0.136100
N1341	N134	0.440100	0.880300	0.223400
N1351	N135	0.401580	0.810100	0.901880
N1361	N136	0.400800	0.827500	0.983700
N1371	N137	0.394300	0.901500	0.075000
N1381	N138	0.383500	0.929600	0.045100
N1391	N139	0.074700	0.210800	0.439700
N1401	N140	0.059900	0.283300	0.440200
N1411	N141	0.098420	0.000300	0.408520
N1421	N142	0.099200	0.082900	0.426700
N1431	N143	0.105700	0.180700	0.507200
N1441	N144	0.116500	0.161600	0.546100
N1451	N145	0.363900	0.789200	0.228900
N1461	N146	0.276600	0.716700	0.156900
N1471	N147	0.598120	0.999700	0.408220
N1481	N148	0.516300	0.917100	0.343800
N1491	N149	0.425000	0.819300	0.326500
N1501	N150	0.454900	0.838400	0.384500
N1511	N151	0.060300	0.135000	0.271100
N1521	N152	0.059800	0.119700	0.343100
N1531	N153	0.091480	0.189900	0.091780
N1541	N154	0.073300	0.172500	0.156200
N1551	N155	0.992800	0.098500	0.173500
N1561	N156	0.953900	0.070400	0.115500
N1571	N157	0.439700	0.710800	0.074700
N1581	N158	0.440200	0.783300	0.059900
N1591	N159	0.408520	0.500300	0.098420
N1601	N160	0.426700	0.582900	0.099200
N1611	N161	0.507200	0.680700	0.105700
N1621	N162	0.546100	0.661600	0.116500
N1631	N163	0.136100	0.365000	0.425300
N1641	N164	0.223400	0.380300	0.440100
N1651	N165	0.901880	0.310100	0.401580
N1661	N166	0.983700	0.327500	0.400800
N1671	N167	0.075000	0.401500	0.394300
N1681	N168	0.045100	0.429600	0.383500
N1691	N169	0.574700	0.439700	0.210800
N1701	N170	0.559900	0.440200	0.283300
N1711	N171	0.598420	0.408520	0.000300
N1721	N172	0.599200	0.426700	0.082900
N1731	N173	0.605700	0.507200	0.180700
N1741	N174	0.616500	0.546100	0.161600
N1751	N175	0.925300	0.136100	0.865000
N1761	N176	0.940100	0.223400	0.880300
N1771	N177	0.901580	0.901880	0.810100
N1781	N178	0.900800	0.983700	0.827500
N1791	N179	0.894300	0.075000	0.901500
N1801	N180	0.883500	0.045100	0.929600
N1811	N181	0.728900	0.363900	0.289200
N1821	N182	0.656900	0.276600	0.216700
N1831	N183	0.908220	0.598120	0.499700
N1841	N184	0.843800	0.516300	0.417100
N1851	N185	0.826500	0.425000	0.319300
N1861	N186	0.884500	0.454900	0.338400
N1871	N187	0.771100	0.060300	0.635000
N1881	N188	0.843100	0.059800	0.619700
N1891	N189	0.591780	0.091480	0.689900
N1901	N190	0.656200	0.073300	0.672500
N1911	N191	0.673500	0.992800	0.598500
N1921	N192	0.615500	0.953900	0.570400
N1931	N193	0.135000	0.771100	0.560300
N1941	N194	0.119700	0.843100	0.559800
N1951	N195	0.189900	0.591780	0.591480
N1961	N196	0.172500	0.656200	0.573300
N1971	N197	0.098500	0.673500	0.492800
N1981	N198	0.070400	0.615500	0.453900
N1991	N199	0.789200	0.728900	0.863900
N2001	N200	0.716700	0.656900	0.776600
N2011	N201	0.999700	0.908220	0.098120
N2021	N202	0.917100	0.843800	0.016300
N2031	N203	0.819300	0.826500	0.925000
N2041	N204	0.838400	0.884500	0.954900
N2051	N205	0.365000	0.925300	0.636100
N2061	N206	0.380300	0.940100	0.723400
N2071	N207	0.310100	0.901580	0.401880
N2081	N208	0.327500	0.900800	0.483700
N2091	N209	0.401500	0.894300	0.575000
N2101	N210	0.429600	0.883500	0.545100
N2111	N211	0.710800	0.574700	0.939700
N2121	N212	0.783300	0.559900	0.940200
N2131	N213	0.500300	0.598420	0.908520
N2141	N214	0.582900	0.599200	0.926700
N2151	N215	0.680700	0.605700	0.007200
N2161	N216	0.661600	0.616500	0.046100
N2171	N217	0.710800	0.136100	0.271100
N2181	N218	0.783300	0.223400	0.343100
N2191	N219	0.500300	0.901880	0.091780
N2201	N220	0.582900	0.983700	0.156200
N2211	N221	0.680700	0.075000	0.173500
N2221	N222	0.661600	0.045100	0.115500
N2231	N223	0.365000	0.439700	0.228900
N2241	N224	0.380300	0.440200	0.156900
N2251	N225	0.310100	0.408520	0.408220
N2261	N226	0.327500	0.426700	0.343800
N2271	N227	0.401500	0.507200	0.326500
N2281	N228	0.429600	0.546100	0.384500
N2291	N229	0.789200	0.060300	0.425300
N2301	N230	0.716700	0.059800	0.440100
N2311	N231	0.999700	0.091480	0.401580
N2321	N232	0.917100	0.073300	0.400800
N2331	N233	0.819300	0.992800	0.394300
N2341	N234	0.838400	0.953900	0.383500
N2351	N235	0.135000	0.363900	0.074700
N2361	N236	0.119700	0.276600	0.059900
N2371	N237	0.189900	0.598120	0.098420
N2381	N238	0.172500	0.516300	0.099200
N2391	N239	0.098500	0.425000	0.105700
N2401	N240	0.070400	0.454900	0.116500
N2411	N241	0.060300	0.925300	0.289200
N2421	N242	0.059800	0.940100	0.216700
N2431	N243	0.091480	0.901580	0.499700
N2441	N244	0.073300	0.900800	0.417100
N2451	N245	0.992800	0.894300	0.319300
N2461	N246	0.953900	0.883500	0.338400
N2471	N247	0.363900	0.574700	0.635000
N2481	N248	0.276600	0.559900	0.619700
N2491	N249	0.598120	0.598420	0.689900
N2501	N250	0.516300	0.599200	0.672500
N2511	N251	0.425000	0.605700	0.598500
N2521	N252	0.454900	0.616500	0.570400
N2531	N253	0.136100	0.771100	0.210800
N2541	N254	0.223400	0.843100	0.283300
N2551	N255	0.901880	0.591780	0.000300
N2561	N256	0.983700	0.656200	0.082900
N2571	N257	0.075000	0.673500	0.180700
N2581	N258	0.045100	0.615500	0.161600
N2591	N259	0.439700	0.728900	0.865000
N2601	N260	0.440200	0.656900	0.880300
N2611	N261	0.408520	0.908220	0.810100
N2621	N262	0.426700	0.843800	0.827500
N2631	N263	0.507200	0.826500	0.901500
N2641	N264	0.546100	0.884500	0.929600
N2651	N265	0.728900	0.365000	0.939700
N2661	N266	0.656900	0.380300	0.940200
N2671	N267	0.908220	0.310100	0.908520
N2681	N268	0.843800	0.327500	0.926700
N2691	N269	0.826500	0.401500	0.007200
N2701	N270	0.884500	0.429600	0.046100
N2711	N271	0.771100	0.710800	0.636100
N2721	N272	0.843100	0.783300	0.723400
N2731	N273	0.591780	0.500300	0.401880
N2741	N274	0.656200	0.582900	0.483700
N2751	N275	0.673500	0.680700	0.575000
N2761	N276	0.615500	0.661600	0.545100
N2771	N277	0.574700	0.135000	0.863900
N2781	N278	0.559900	0.119700	0.776600
N2791	N279	0.598420	0.189900	0.098120
N2801	N280	0.599200	0.172500	0.016300
N2811	N281	0.605700	0.098500	0.925000
N2821	N282	0.616500	0.070400	0.954900
N2831	N283	0.925300	0.789200	0.560300
N2841	N284	0.940100	0.716700	0.559800
N2851	N285	0.901580	0.999700	0.591480
N2861	N286	0.900800	0.917100	0.573300
N2871	N287	0.894300	0.819300	0.492800
N2881	N288	0.883500	0.838400	0.453900
