data_YAQCIE_clean_PM
_symmetry_space_group_name_H-M	'P1'
_cell_length_a	18.317100
_cell_length_b	8.760200
_cell_length_c	19.427200
_cell_angle_alpha	90.000000
_cell_angle_beta	128.945000
_cell_angle_gamma	90.000000
_symmetry_Int_Tables_number 1

loop_
_symmetry_equiv_pos_as_xyz
'x,y,z'

loop_
_atom_site_label
_atom_site_type_symbol
_atom_site_fract_x
_atom_site_fract_y
_atom_site_fract_z
In11	In1	0.174040	0.470490	0.659430
O11	O1	0.109300	0.306700	0.801800
O21	O2	0.123300	0.276100	0.680900
O31	O3	0.080400	0.055200	0.728300
H11	H1	0.116100	0.977700	0.746300
O41	O4	0.244700	0.157700	0.834200
O51	O5	0.797800	0.833200	0.709900
O61	O6	0.911100	0.656200	0.721700
O71	O7	0.747400	0.662600	0.582100
H21	H2	0.706000	0.732400	0.558600
O81	O8	0.777000	0.548200	0.713500
O91	O9	0.051300	0.610000	0.587100
O101	O10	0.943900	0.760300	0.599400
H31	H3	0.981500	0.763700	0.655600
O111	O11	0.951500	0.474100	0.616200
O121	O12	0.875200	0.601700	0.470000
P11	P1	0.142100	0.205200	0.761830
P21	P2	0.809730	0.674400	0.685270
P31	P3	0.957450	0.603200	0.568510
In21	In2	0.674040	0.970490	0.659430
O131	O13	0.609300	0.806700	0.801800
O141	O14	0.623300	0.776100	0.680900
O151	O15	0.580400	0.555200	0.728300
H41	H4	0.616100	0.477700	0.746300
O161	O16	0.744700	0.657700	0.834200
O171	O17	0.297800	0.333200	0.709900
O181	O18	0.411100	0.156200	0.721700
O191	O19	0.247400	0.162600	0.582100
H51	H5	0.206000	0.232400	0.558600
O201	O20	0.277000	0.048200	0.713500
O211	O21	0.551300	0.110000	0.587100
O221	O22	0.443900	0.260300	0.599400
H61	H6	0.481500	0.263700	0.655600
O231	O23	0.451500	0.974100	0.616200
O241	O24	0.375200	0.101700	0.470000
P41	P4	0.642100	0.705200	0.761830
P51	P5	0.309730	0.174400	0.685270
P61	P6	0.457450	0.103200	0.568510
In31	In3	0.825960	0.470490	0.840570
O251	O25	0.890700	0.306700	0.698200
O261	O26	0.876700	0.276100	0.819100
O271	O27	0.919600	0.055200	0.771700
H71	H7	0.883900	0.977700	0.753700
O281	O28	0.755300	0.157700	0.665800
O291	O29	0.202200	0.833200	0.790100
O301	O30	0.088900	0.656200	0.778300
O311	O31	0.252600	0.662600	0.917900
H81	H8	0.294000	0.732400	0.941400
O321	O32	0.223000	0.548200	0.786500
O331	O33	0.948700	0.610000	0.912900
O341	O34	0.056100	0.760300	0.900600
H91	H9	0.018500	0.763700	0.844400
O351	O35	0.048500	0.474100	0.883800
O361	O36	0.124800	0.601700	0.030000
P71	P7	0.857900	0.205200	0.738170
P81	P8	0.190270	0.674400	0.814730
P91	P9	0.042550	0.603200	0.931490
In41	In4	0.325960	0.970490	0.840570
O371	O37	0.390700	0.806700	0.698200
O381	O38	0.376700	0.776100	0.819100
O391	O39	0.419600	0.555200	0.771700
H101	H10	0.383900	0.477700	0.753700
O401	O40	0.255300	0.657700	0.665800
O411	O41	0.702200	0.333200	0.790100
O421	O42	0.588900	0.156200	0.778300
O431	O43	0.752600	0.162600	0.917900
H111	H11	0.794000	0.232400	0.941400
O441	O44	0.723000	0.048200	0.786500
O451	O45	0.448700	0.110000	0.912900
O461	O46	0.556100	0.260300	0.900600
H121	H12	0.518500	0.263700	0.844400
O471	O47	0.548500	0.974100	0.883800
O481	O48	0.624800	0.101700	0.030000
P101	P10	0.357900	0.705200	0.738170
P111	P11	0.690270	0.174400	0.814730
P121	P12	0.542550	0.103200	0.931490
In51	In5	0.825960	0.529510	0.340570
O491	O49	0.890700	0.693300	0.198200
O501	O50	0.876700	0.723900	0.319100
O511	O51	0.919600	0.944800	0.271700
H131	H13	0.883900	0.022300	0.253700
O521	O52	0.755300	0.842300	0.165800
O531	O53	0.202200	0.166800	0.290100
O541	O54	0.088900	0.343800	0.278300
O551	O55	0.252600	0.337400	0.417900
H141	H14	0.294000	0.267600	0.441400
O561	O56	0.223000	0.451800	0.286500
O571	O57	0.948700	0.390000	0.412900
O581	O58	0.056100	0.239700	0.400600
H151	H15	0.018500	0.236300	0.344400
O591	O59	0.048500	0.525900	0.383800
O601	O60	0.124800	0.398300	0.530000
P131	P13	0.857900	0.794800	0.238170
P141	P14	0.190270	0.325600	0.314730
P151	P15	0.042550	0.396800	0.431490
In61	In6	0.325960	0.029510	0.340570
O611	O61	0.390700	0.193300	0.198200
O621	O62	0.376700	0.223900	0.319100
O631	O63	0.419600	0.444800	0.271700
H161	H16	0.383900	0.522300	0.253700
O641	O64	0.255300	0.342300	0.165800
O651	O65	0.702200	0.666800	0.290100
O661	O66	0.588900	0.843800	0.278300
O671	O67	0.752600	0.837400	0.417900
H171	H17	0.794000	0.767600	0.441400
O681	O68	0.723000	0.951800	0.286500
O691	O69	0.448700	0.890000	0.412900
O701	O70	0.556100	0.739700	0.400600
H181	H18	0.518500	0.736300	0.344400
O711	O71	0.548500	0.025900	0.383800
O721	O72	0.624800	0.898300	0.530000
P161	P16	0.357900	0.294800	0.238170
P171	P17	0.690270	0.825600	0.314730
P181	P18	0.542550	0.896800	0.431490
In71	In7	0.174040	0.529510	0.159430
O731	O73	0.109300	0.693300	0.301800
O741	O74	0.123300	0.723900	0.180900
O751	O75	0.080400	0.944800	0.228300
H191	H19	0.116100	0.022300	0.246300
O761	O76	0.244700	0.842300	0.334200
O771	O77	0.797800	0.166800	0.209900
O781	O78	0.911100	0.343800	0.221700
O791	O79	0.747400	0.337400	0.082100
H201	H20	0.706000	0.267600	0.058600
O801	O80	0.777000	0.451800	0.213500
O811	O81	0.051300	0.390000	0.087100
O821	O82	0.943900	0.239700	0.099400
H211	H21	0.981500	0.236300	0.155600
O831	O83	0.951500	0.525900	0.116200
O841	O84	0.875200	0.398300	0.970000
P191	P19	0.142100	0.794800	0.261830
P201	P20	0.809730	0.325600	0.185270
P211	P21	0.957450	0.396800	0.068510
In81	In8	0.674040	0.029510	0.159430
O851	O85	0.609300	0.193300	0.301800
O861	O86	0.623300	0.223900	0.180900
O871	O87	0.580400	0.444800	0.228300
H221	H22	0.616100	0.522300	0.246300
O881	O88	0.744700	0.342300	0.334200
O891	O89	0.297800	0.666800	0.209900
O901	O90	0.411100	0.843800	0.221700
O911	O91	0.247400	0.837400	0.082100
H231	H23	0.206000	0.767600	0.058600
O921	O92	0.277000	0.951800	0.213500
O931	O93	0.551300	0.890000	0.087100
O941	O94	0.443900	0.739700	0.099400
H241	H24	0.481500	0.736300	0.155600
O951	O95	0.451500	0.025900	0.116200
O961	O96	0.375200	0.898300	0.970000
P221	P22	0.642100	0.294800	0.261830
P231	P23	0.309730	0.825600	0.185270
P241	P24	0.457450	0.896800	0.068510
In91	In9	0.000000	0.464680	0.750000
In101	In10	0.500000	0.964680	0.750000
In111	In11	0.000000	0.535320	0.250000
In121	In12	0.500000	0.035320	0.250000
