data_YAQCAW_clean_PM
_symmetry_space_group_name_H-M	'P1'
_cell_length_a	13.859000
_cell_length_b	13.859000
_cell_length_c	18.944900
_cell_angle_alpha	90.000000
_cell_angle_beta	90.000000
_cell_angle_gamma	120.000000
_symmetry_Int_Tables_number 1

loop_
_symmetry_equiv_pos_as_xyz
'x,y,z'

loop_
_atom_site_label
_atom_site_type_symbol
_atom_site_fract_x
_atom_site_fract_y
_atom_site_fract_z
In11	In1	0.293680	0.439010	0.453940
O11	O1	0.065300	0.145800	0.314690
O21	O2	0.107400	0.136800	0.437800
O31	O3	0.189500	0.316400	0.378760
O41	O4	0.251800	0.181900	0.347750
H11	H1	0.316200	0.254700	0.343500
O51	O5	0.145800	0.436700	0.490860
O61	O6	0.007800	0.433500	0.576400
O71	O7	0.200700	0.497100	0.617450
H21	H2	0.278000	0.536400	0.604400
O81	O8	0.168200	0.615700	0.534050
O91	O9	0.335300	0.563300	0.377520
H31	H3	0.391700	0.667700	0.258900
P11	P1	0.149860	0.193180	0.371600
P21	P2	0.127340	0.495800	0.551790
In21	In2	0.560990	0.854670	0.453940
O101	O10	0.854200	0.919500	0.314690
O111	O11	0.863200	0.970600	0.437800
O121	O12	0.683600	0.873100	0.378760
O131	O13	0.818100	0.069900	0.347750
H41	H4	0.745300	0.061500	0.343500
O141	O14	0.563300	0.709100	0.490860
O151	O15	0.566500	0.574300	0.576400
O161	O16	0.502900	0.703600	0.617450
H51	H5	0.463600	0.741600	0.604400
O171	O17	0.384300	0.552500	0.534050
O181	O18	0.436700	0.772000	0.377520
H61	H6	0.332300	0.724000	0.258900
P31	P3	0.806820	0.956680	0.371600
P41	P4	0.504200	0.631540	0.551790
In31	In3	0.145330	0.706320	0.453940
O191	O19	0.080500	0.934700	0.314690
O201	O20	0.029400	0.892600	0.437800
O211	O21	0.126900	0.810500	0.378760
O221	O22	0.930100	0.748200	0.347750
H71	H7	0.938500	0.683800	0.343500
O231	O23	0.290900	0.854200	0.490860
O241	O24	0.425700	0.992200	0.576400
O251	O25	0.296400	0.799300	0.617450
H81	H8	0.258400	0.722000	0.604400
O261	O26	0.447500	0.831800	0.534050
O271	O27	0.228000	0.664700	0.377520
H91	H9	0.276000	0.608300	0.258900
P51	P5	0.043320	0.850140	0.371600
P61	P6	0.368460	0.872660	0.551790
In41	In4	0.439010	0.293680	0.046060
O281	O28	0.145800	0.065300	0.185310
O291	O29	0.136800	0.107400	0.062200
O301	O30	0.316400	0.189500	0.121240
O311	O31	0.181900	0.251800	0.152250
H101	H10	0.254700	0.316200	0.156500
O321	O32	0.436700	0.145800	0.009140
O331	O33	0.433500	0.007800	0.923600
O341	O34	0.497100	0.200700	0.882550
H111	H11	0.536400	0.278000	0.895600
O351	O35	0.615700	0.168200	0.965950
O361	O36	0.563300	0.335300	0.122480
H121	H12	0.667700	0.391700	0.241100
P71	P7	0.193180	0.149860	0.128400
P81	P8	0.495800	0.127340	0.948210
In51	In5	0.854670	0.560990	0.046060
O371	O37	0.919500	0.854200	0.185310
O381	O38	0.970600	0.863200	0.062200
O391	O39	0.873100	0.683600	0.121240
O401	O40	0.069900	0.818100	0.152250
H131	H13	0.061500	0.745300	0.156500
O411	O41	0.709100	0.563300	0.009140
O421	O42	0.574300	0.566500	0.923600
O431	O43	0.703600	0.502900	0.882550
H141	H14	0.741600	0.463600	0.895600
O441	O44	0.552500	0.384300	0.965950
O451	O45	0.772000	0.436700	0.122480
H151	H15	0.724000	0.332300	0.241100
P91	P9	0.956680	0.806820	0.128400
P101	P10	0.631540	0.504200	0.948210
In61	In6	0.706320	0.145330	0.046060
O461	O46	0.934700	0.080500	0.185310
O471	O47	0.892600	0.029400	0.062200
O481	O48	0.810500	0.126900	0.121240
O491	O49	0.748200	0.930100	0.152250
H161	H16	0.683800	0.938500	0.156500
O501	O50	0.854200	0.290900	0.009140
O511	O51	0.992200	0.425700	0.923600
O521	O52	0.799300	0.296400	0.882550
H171	H17	0.722000	0.258400	0.895600
O531	O53	0.831800	0.447500	0.965950
O541	O54	0.664700	0.228000	0.122480
H181	H18	0.608300	0.276000	0.241100
P111	P11	0.850140	0.043320	0.128400
P121	P12	0.872660	0.368460	0.948210
In71	In7	0.706320	0.560990	0.546060
O551	O55	0.934700	0.854200	0.685310
O561	O56	0.892600	0.863200	0.562200
O571	O57	0.810500	0.683600	0.621240
O581	O58	0.748200	0.818100	0.652250
H191	H19	0.683800	0.745300	0.656500
O591	O59	0.854200	0.563300	0.509140
O601	O60	0.992200	0.566500	0.423600
O611	O61	0.799300	0.502900	0.382550
H201	H20	0.722000	0.463600	0.395600
O621	O62	0.831800	0.384300	0.465950
O631	O63	0.664700	0.436700	0.622480
H211	H21	0.608300	0.332300	0.741100
P131	P13	0.850140	0.806820	0.628400
P141	P14	0.872660	0.504200	0.448210
In81	In8	0.439010	0.145330	0.546060
O641	O64	0.145800	0.080500	0.685310
O651	O65	0.136800	0.029400	0.562200
O661	O66	0.316400	0.126900	0.621240
O671	O67	0.181900	0.930100	0.652250
H221	H22	0.254700	0.938500	0.656500
O681	O68	0.436700	0.290900	0.509140
O691	O69	0.433500	0.425700	0.423600
O701	O70	0.497100	0.296400	0.382550
H231	H23	0.536400	0.258400	0.395600
O711	O71	0.615700	0.447500	0.465950
O721	O72	0.563300	0.228000	0.622480
H241	H24	0.667700	0.276000	0.741100
P151	P15	0.193180	0.043320	0.628400
P161	P16	0.495800	0.368460	0.448210
In91	In9	0.854670	0.293680	0.546060
O731	O73	0.919500	0.065300	0.685310
O741	O74	0.970600	0.107400	0.562200
O751	O75	0.873100	0.189500	0.621240
O761	O76	0.069900	0.251800	0.652250
H251	H25	0.061500	0.316200	0.656500
O771	O77	0.709100	0.145800	0.509140
O781	O78	0.574300	0.007800	0.423600
O791	O79	0.703600	0.200700	0.382550
H261	H26	0.741600	0.278000	0.395600
O801	O80	0.552500	0.168200	0.465950
O811	O81	0.772000	0.335300	0.622480
H271	H27	0.724000	0.391700	0.741100
P171	P17	0.956680	0.149860	0.628400
P181	P18	0.631540	0.127340	0.448210
In101	In10	0.560990	0.706320	0.953940
O821	O82	0.854200	0.934700	0.814690
O831	O83	0.863200	0.892600	0.937800
O841	O84	0.683600	0.810500	0.878760
O851	O85	0.818100	0.748200	0.847750
H281	H28	0.745300	0.683800	0.843500
O861	O86	0.563300	0.854200	0.990860
O871	O87	0.566500	0.992200	0.076400
O881	O88	0.502900	0.799300	0.117450
H291	H29	0.463600	0.722000	0.104400
O891	O89	0.384300	0.831800	0.034050
O901	O90	0.436700	0.664700	0.877520
H301	H30	0.332300	0.608300	0.758900
P191	P19	0.806820	0.850140	0.871600
P201	P20	0.504200	0.872660	0.051790
In111	In11	0.145330	0.439010	0.953940
O911	O91	0.080500	0.145800	0.814690
O921	O92	0.029400	0.136800	0.937800
O931	O93	0.126900	0.316400	0.878760
O941	O94	0.930100	0.181900	0.847750
H311	H31	0.938500	0.254700	0.843500
O951	O95	0.290900	0.436700	0.990860
O961	O96	0.425700	0.433500	0.076400
O971	O97	0.296400	0.497100	0.117450
H321	H32	0.258400	0.536400	0.104400
O981	O98	0.447500	0.615700	0.034050
O991	O99	0.228000	0.563300	0.877520
H331	H33	0.276000	0.667700	0.758900
P211	P21	0.043320	0.193180	0.871600
P221	P22	0.368460	0.495800	0.051790
In121	In12	0.293680	0.854670	0.953940
O1001	O100	0.065300	0.919500	0.814690
O1011	O101	0.107400	0.970600	0.937800
O1021	O102	0.189500	0.873100	0.878760
O1031	O103	0.251800	0.069900	0.847750
H341	H34	0.316200	0.061500	0.843500
O1041	O104	0.145800	0.709100	0.990860
O1051	O105	0.007800	0.574300	0.076400
O1061	O106	0.200700	0.703600	0.117450
H351	H35	0.278000	0.741600	0.104400
O1071	O107	0.168200	0.552500	0.034050
O1081	O108	0.335300	0.772000	0.877520
H361	H36	0.391700	0.724000	0.758900
P231	P23	0.149860	0.956680	0.871600
P241	P24	0.127340	0.631540	0.051790
In131	In13	0.000000	0.000000	0.250000
In141	In14	0.000000	0.000000	0.750000
In151	In15	0.000000	0.000000	0.500000
In161	In16	0.000000	0.000000	0.000000
O1091	O109	0.333330	0.666670	0.273900
P251	P25	0.333330	0.666670	0.357070
O1101	O110	0.666670	0.333330	0.226100
P261	P26	0.666670	0.333330	0.142930
O1111	O111	0.666670	0.333330	0.726100
P271	P27	0.666670	0.333330	0.642930
O1121	O112	0.333330	0.666670	0.773900
P281	P28	0.333330	0.666670	0.857070
