data_YAQKEI_clean_PM
_symmetry_space_group_name_H-M	'P1'
_cell_length_a	7.238900
_cell_length_b	22.164000
_cell_length_c	10.633000
_cell_angle_alpha	90.000000
_cell_angle_beta	90.800000
_cell_angle_gamma	90.000000
_symmetry_Int_Tables_number 1

loop_
_symmetry_equiv_pos_as_xyz
'x,y,z'

loop_
_atom_site_label
_atom_site_type_symbol
_atom_site_fract_x
_atom_site_fract_y
_atom_site_fract_z
Ho11	Ho1	0.263170	0.250370	0.848820
Sb11	Sb1	0.452670	0.992570	0.139050
Sb21	Sb2	0.575080	0.482190	0.595980
N11	N1	0.190100	0.051000	0.129900
N21	N2	0.219900	0.922700	0.166600
N31	N3	0.808500	0.411900	0.632600
N41	N4	0.839300	0.541300	0.594500
O11	O1	0.370800	0.011900	0.335800
O21	O2	0.256600	0.083900	0.458900
O31	O3	0.512300	0.088800	0.037200
O41	O4	0.382000	0.159500	0.916500
O51	O5	0.573200	0.887400	0.189300
O61	O6	0.502700	0.803400	0.296600
O71	O7	0.361500	0.972900	0.954000
O81	O8	0.220000	0.907800	0.825300
O91	O9	0.452800	0.377600	0.654900
O101	O10	0.522100	0.301200	0.784500
O111	O11	0.680000	0.462600	0.414200
O121	O12	0.824800	0.397000	0.291900
O131	O13	0.648100	0.501300	0.794600
O141	O14	0.768500	0.570100	0.924100
O151	O15	0.517100	0.579300	0.495000
O161	O16	0.645600	0.655500	0.392700
C11	C1	0.196800	0.091600	0.241400
H11	H1	0.271500	0.127700	0.221500
H21	H2	0.070100	0.105300	0.260700
C21	C2	0.278800	0.060700	0.354800
C31	C3	0.185600	0.088100	0.012300
H31	H3	0.094200	0.121000	0.021000
H41	H4	0.146800	0.062600	0.940300
C41	C4	0.371900	0.114500	0.987700
C51	C5	0.028300	0.009000	0.128500
H51	H5	0.005000	0.995600	0.040900
H61	H6	0.917900	0.031500	0.156000
C61	C6	0.050100	0.955200	0.208600
H71	H7	0.063500	0.967200	0.298000
H81	H8	0.940600	0.928700	0.199800
C71	C7	0.268700	0.877900	0.266100
H91	H9	0.261300	0.897300	0.349800
H101	H10	0.179400	0.844100	0.263400
C81	C8	0.463400	0.853700	0.247000
C91	C9	0.190900	0.890900	0.044000
H111	H11	0.254600	0.851400	0.047900
H121	H12	0.057200	0.883000	0.032000
C101	C10	0.259500	0.925200	0.931900
C111	C11	0.759900	0.368900	0.733400
H131	H13	0.779000	0.388600	0.816100
H141	H14	0.843500	0.333600	0.729700
C121	C12	0.562400	0.347500	0.722600
C131	C13	0.835200	0.379100	0.513100
H151	H15	0.762100	0.341400	0.515100
H161	H16	0.967000	0.367800	0.506800
C141	C14	0.779600	0.414800	0.395600
C151	C15	0.977000	0.446600	0.671200
H171	H17	0.966300	0.458400	0.760600
H181	H18	0.086700	0.420200	0.663900
C161	C16	0.004900	0.501800	0.593700
H191	H19	0.112800	0.524400	0.626900
H201	H20	0.031500	0.489800	0.506000
C171	C17	0.837200	0.580100	0.708900
H211	H21	0.768300	0.617600	0.689700
H221	H22	0.965600	0.591400	0.732000
C181	C18	0.749100	0.548800	0.819200
C191	C19	0.846500	0.580400	0.483100
H231	H23	0.886100	0.556500	0.409500
H241	H24	0.938100	0.612900	0.497500
C201	C20	0.654800	0.608300	0.455700
Ho21	Ho2	0.763170	0.749630	0.348820
Sb31	Sb3	0.952670	0.007430	0.639050
Sb41	Sb4	0.075080	0.517800	0.095980
N51	N5	0.690100	0.949000	0.629900
N61	N6	0.719900	0.077300	0.666600
N71	N7	0.308500	0.588100	0.132600
N81	N8	0.339300	0.458700	0.094500
O171	O17	0.870800	0.988100	0.835800
O181	O18	0.756600	0.916100	0.958900
O191	O19	0.012300	0.911200	0.537200
O201	O20	0.882000	0.840500	0.416500
O211	O21	0.073200	0.112600	0.689300
O221	O22	0.002700	0.196600	0.796600
O231	O23	0.861500	0.027100	0.454000
O241	O24	0.720000	0.092200	0.325300
O251	O25	0.952800	0.622400	0.154900
O261	O26	0.022100	0.698800	0.284500
O271	O27	0.180000	0.537400	0.914200
O281	O28	0.324800	0.603000	0.791900
O291	O29	0.148100	0.498700	0.294600
O301	O30	0.268500	0.429900	0.424100
O311	O31	0.017100	0.420700	0.995000
O321	O32	0.145600	0.344500	0.892700
C211	C21	0.696800	0.908400	0.741400
H251	H25	0.771500	0.872300	0.721500
H261	H26	0.570100	0.894700	0.760700
C221	C22	0.778800	0.939300	0.854800
C231	C23	0.685600	0.911900	0.512300
H271	H27	0.594200	0.879000	0.521000
H281	H28	0.646800	0.937400	0.440300
C241	C24	0.871900	0.885500	0.487700
C251	C25	0.528300	0.991000	0.628500
H291	H29	0.505000	0.004400	0.540900
H301	H30	0.417900	0.968500	0.656000
C261	C26	0.550100	0.044800	0.708600
H311	H31	0.563500	0.032800	0.798000
H321	H32	0.440600	0.071300	0.699800
C271	C27	0.768700	0.122100	0.766100
H331	H33	0.761300	0.102700	0.849800
H341	H34	0.679400	0.155900	0.763400
C281	C28	0.963400	0.146300	0.747000
C291	C29	0.690900	0.109100	0.544000
H351	H35	0.754600	0.148600	0.547900
H361	H36	0.557200	0.117000	0.532000
C301	C30	0.759500	0.074800	0.431900
C311	C31	0.259900	0.631100	0.233400
H371	H37	0.279000	0.611400	0.316100
H381	H38	0.343500	0.666400	0.229700
C321	C32	0.062400	0.652500	0.222600
C331	C33	0.335200	0.620900	0.013100
H391	H39	0.262100	0.658600	0.015100
H401	H40	0.467000	0.632200	0.006800
C341	C34	0.279600	0.585200	0.895600
C351	C35	0.477000	0.553400	0.171200
H411	H41	0.466300	0.541600	0.260600
H421	H42	0.586700	0.579800	0.163900
C361	C36	0.504900	0.498200	0.093700
H431	H43	0.612800	0.475600	0.126900
H441	H44	0.531500	0.510200	0.006000
C371	C37	0.337200	0.419900	0.208900
H451	H45	0.268300	0.382400	0.189700
H461	H46	0.465600	0.408600	0.232000
C381	C38	0.249100	0.451200	0.319200
C391	C39	0.346500	0.419600	0.983100
H471	H47	0.386100	0.443500	0.909500
H481	H48	0.438100	0.387100	0.997500
C401	C40	0.154800	0.391700	0.955700
