data_YAQZUN_clean_PM
_symmetry_space_group_name_H-M	'P1'
_cell_length_a	9.973600
_cell_length_b	12.705100
_cell_length_c	12.848900
_cell_angle_alpha	90.000000
_cell_angle_beta	90.000000
_cell_angle_gamma	90.000000
_symmetry_Int_Tables_number 1

loop_
_symmetry_equiv_pos_as_xyz
'x,y,z'

loop_
_atom_site_label
_atom_site_type_symbol
_atom_site_fract_x
_atom_site_fract_y
_atom_site_fract_z
U11	U1	0.594890	0.186860	0.201400
U21	U2	0.094890	0.313140	0.298600
U31	U3	0.905110	0.186860	0.798600
U41	U4	0.405110	0.313140	0.701400
U51	U5	0.405110	0.813140	0.798600
U61	U6	0.905110	0.686860	0.701400
U71	U7	0.094890	0.813140	0.201400
U81	U8	0.594890	0.686860	0.298600
H11	H1	0.849500	0.938100	0.377700
H21	H2	0.349500	0.561900	0.122300
H31	H3	0.650500	0.938100	0.622300
H41	H4	0.150500	0.561900	0.877700
H51	H5	0.150500	0.061900	0.622300
H61	H6	0.650500	0.438100	0.877700
H71	H7	0.349500	0.061900	0.377700
H81	H8	0.849500	0.438100	0.122300
C11	C1	0.845200	0.141800	0.369600
C21	C2	0.030600	0.222500	0.545800
C31	C3	0.016300	0.108600	0.514400
C41	C4	0.925500	0.071300	0.439700
C51	C5	0.910200	0.963100	0.426800
C61	C6	0.345200	0.358200	0.130400
C71	C7	0.530600	0.277500	0.954200
C81	C8	0.516300	0.391400	0.985600
C91	C9	0.425500	0.428700	0.060300
C101	C10	0.410200	0.536900	0.073200
C111	C11	0.654800	0.141800	0.630400
C121	C12	0.469400	0.222500	0.454200
C131	C13	0.483700	0.108600	0.485600
C141	C14	0.574500	0.071300	0.560300
C151	C15	0.589800	0.963100	0.573200
C161	C16	0.154800	0.358200	0.869600
C171	C17	0.969400	0.277500	0.045800
C181	C18	0.983700	0.391400	0.014400
C191	C19	0.074500	0.428700	0.939700
C201	C20	0.089800	0.536900	0.926800
C211	C21	0.154800	0.858200	0.630400
C221	C22	0.969400	0.777500	0.454200
C231	C23	0.983700	0.891400	0.485600
C241	C24	0.074500	0.928700	0.560300
C251	C25	0.089800	0.036900	0.573200
C261	C26	0.654800	0.641800	0.869600
C271	C27	0.469400	0.722500	0.045800
C281	C28	0.483700	0.608600	0.014400
C291	C29	0.574500	0.571300	0.939700
C301	C30	0.589800	0.463100	0.926800
C311	C31	0.345200	0.858200	0.369600
C321	C32	0.530600	0.777500	0.545800
C331	C33	0.516300	0.891400	0.514400
C341	C34	0.425500	0.928700	0.439700
C351	C35	0.410200	0.036900	0.426800
C361	C36	0.845200	0.641800	0.130400
C371	C37	0.030600	0.722500	0.954200
C381	C38	0.016300	0.608600	0.985600
C391	C39	0.925500	0.571300	0.060300
C401	C40	0.910200	0.463100	0.073200
O11	O1	0.733100	0.110230	0.338340
O21	O2	0.078500	0.291150	0.485740
O31	O3	0.999600	0.244920	0.637740
O41	O4	0.893700	0.230100	0.344400
O51	O5	0.233100	0.389770	0.161660
O61	O6	0.578500	0.208850	0.014260
O71	O7	0.499600	0.255080	0.862260
O81	O8	0.393700	0.269900	0.155600
O91	O9	0.766900	0.110230	0.661660
O101	O10	0.421500	0.291150	0.514260
O111	O11	0.500400	0.244920	0.362260
O121	O12	0.606300	0.230100	0.655600
O131	O13	0.266900	0.389770	0.838340
O141	O14	0.921500	0.208850	0.985740
O151	O15	0.000400	0.255080	0.137740
O161	O16	0.106300	0.269900	0.844400
O171	O17	0.266900	0.889770	0.661660
O181	O18	0.921500	0.708850	0.514260
O191	O19	0.000400	0.755080	0.362260
O201	O20	0.106300	0.769900	0.655600
O211	O21	0.766900	0.610230	0.838340
O221	O22	0.421500	0.791150	0.985740
O231	O23	0.500400	0.744920	0.137740
O241	O24	0.606300	0.730100	0.844400
O251	O25	0.233100	0.889770	0.338340
O261	O26	0.578500	0.708850	0.485740
O271	O27	0.499600	0.755080	0.637740
O281	O28	0.393700	0.769900	0.344400
O291	O29	0.733100	0.610230	0.161660
O301	O30	0.078500	0.791150	0.014260
O311	O31	0.999600	0.744920	0.862260
O321	O32	0.893700	0.730100	0.155600
