data_YAQZEX_ion_b_PM
_symmetry_space_group_name_H-M	'P1'
_cell_length_a	13.198000
_cell_length_b	14.852000
_cell_length_c	23.407000
_cell_angle_alpha	90.000000
_cell_angle_beta	90.000000
_cell_angle_gamma	90.000000
_symmetry_Int_Tables_number 1

loop_
_symmetry_equiv_pos_as_xyz
'x,y,z'

loop_
_atom_site_label
_atom_site_type_symbol
_atom_site_fract_x
_atom_site_fract_y
_atom_site_fract_z
U11	U1	0.323410	0.200230	0.197470
U21	U2	0.001310	0.188990	0.187080
U31	U3	0.186500	0.316530	0.312630
O41	O4	0.155940	0.249890	0.225530
O51	O5	0.030490	0.882770	0.130480
O61	O6	0.629270	0.125670	0.125320
O71	O7	0.131250	0.097960	0.159200
O81	O8	0.183950	0.854570	0.161670
O91	O9	0.505240	0.194930	0.222130
O101	O10	0.349040	0.337750	0.163650
O111	O11	0.297220	0.063660	0.230140
O121	O12	0.031120	0.286040	0.117050
O131	O13	0.248530	0.425060	0.258550
O141	O14	0.970720	0.094250	0.257320
O151	O15	0.268110	0.151030	0.114610
O161	O16	0.479380	0.154350	0.162060
O171	O17	0.336970	0.236470	0.290960
O181	O18	0.128380	0.204790	0.366240
C191	C19	0.186910	0.103340	0.113630
C201	C20	0.531640	0.114770	0.120070
C211	C21	0.494070	0.059820	0.065620
C221	C22	0.170530	0.043680	0.062040
C231	C23	0.156590	0.946840	0.065770
C241	C24	0.126840	0.893690	0.121950
N251	N25	0.314440	0.048040	0.390180
U261	U26	0.657960	0.817060	0.190440
U271	U27	0.985820	0.807570	0.209790
U281	U28	0.807470	0.724840	0.308140
O291	O29	0.815110	0.824510	0.238490
O301	O30	0.909670	0.107400	0.122570
O311	O31	0.397280	0.923240	0.147100
O321	O32	0.928420	0.881930	0.127170
O331	O33	0.733600	0.129850	0.119080
O341	O34	0.504690	0.792940	0.244220
O351	O35	0.676720	0.675340	0.162760
O361	O36	0.635430	0.958020	0.216650
O371	O37	0.951620	0.681260	0.163130
O381	O38	0.802500	0.613740	0.245800
O391	O39	0.023040	0.931330	0.257020
O401	O40	0.751450	0.866180	0.115790
O411	O41	0.527730	0.833850	0.128580
O421	O42	0.634740	0.763390	0.283010
O431	O43	0.811780	0.837400	0.370310
C441	C44	0.840640	0.893110	0.099110
C451	C45	0.478270	0.907630	0.118460
C461	C46	0.495560	0.962470	0.064470
C471	C47	0.837400	0.946020	0.042090
C481	C48	0.820520	0.041520	0.042220
C491	C49	0.820600	0.097070	0.098880
N501	N50	0.596860	0.955460	0.374640
U511	U51	0.169430	0.691960	0.306200
U521	U52	0.488510	0.676720	0.308760
U531	U53	0.336980	0.816810	0.203940
O541	O54	0.329530	0.699480	0.264020
O551	O55	0.455610	0.363930	0.380690
O561	O56	0.867230	0.638070	0.381690
O571	O57	0.392350	0.574180	0.357080
O581	O58	0.277940	0.367180	0.386470
O591	O59	0.989120	0.732220	0.293890
O601	O60	0.192990	0.822230	0.350400
O611	O61	0.140660	0.563600	0.262100
O621	O62	0.449750	0.776530	0.375710
O631	O63	0.311990	0.911500	0.275290
O641	O64	0.527660	0.577920	0.241530
O651	O65	0.235450	0.622940	0.386250
O661	O66	0.014900	0.673150	0.347770
O671	O67	0.161160	0.763270	0.218390
O681	O68	0.362090	0.717710	0.134370
C691	C69	0.322720	0.582680	0.396300
C701	C70	0.964640	0.631640	0.388890
C711	C71	0.004950	0.577620	0.443070
C721	C72	0.340770	0.534030	0.454930
C731	C73	0.367790	0.440730	0.459370
C741	C74	0.368120	0.384620	0.405350
N751	N75	0.148120	0.521790	0.120650
U761	U76	0.865990	0.318210	0.298610
U771	U77	0.506020	0.283710	0.301120
U781	U78	0.682920	0.214250	0.198100
O791	O79	0.683080	0.303590	0.276860
O801	O80	0.595230	0.606140	0.369910
O811	O81	0.071670	0.421530	0.346440
O821	O82	0.556970	0.367130	0.376220
O831	O83	0.768420	0.624780	0.375210
O841	O84	0.033390	0.292930	0.258850
O851	O85	0.863690	0.181430	0.336370
O861	O86	0.869000	0.454650	0.262020
O871	O87	0.540330	0.163090	0.353390
O881	O88	0.723140	0.099160	0.253510
O891	O89	0.472290	0.404160	0.249140
O901	O90	0.708310	0.346920	0.338690
O911	O91	0.921480	0.376070	0.381530
O921	O92	0.849530	0.266800	0.207370
O931	O93	0.645130	0.331840	0.143730
C941	C94	0.653880	0.380310	0.381890
C951	C95	0.005210	0.420320	0.387780
C961	C96	0.017030	0.480260	0.442160
C971	C97	0.687950	0.430980	0.438160
C981	C98	0.690950	0.527680	0.441840
C991	C99	0.683720	0.588240	0.390860
N1001	N100	0.840020	0.472980	0.110200
U1011	U101	0.649550	0.813190	0.802050
U1021	U102	0.009030	0.789100	0.798790
U1031	U103	0.831860	0.715910	0.698360
O1041	O104	0.831510	0.807590	0.775790
O1051	O105	0.960770	0.108480	0.874040
O1061	O106	0.445200	0.909590	0.855790
O1071	O107	0.960200	0.876680	0.871700
O1081	O108	0.812470	0.142600	0.843230
O1091	O109	0.482400	0.787300	0.762350
O1101	O110	0.662180	0.674640	0.836380
O1111	O111	0.636250	0.950260	0.770290
O1121	O112	0.975000	0.670810	0.853280
O1131	O113	0.799870	0.602050	0.756200
O1141	O114	0.041920	0.907890	0.744740
O1151	O115	0.808370	0.848480	0.837390
O1161	O116	0.594650	0.860480	0.888710
O1171	O117	0.664380	0.765920	0.709550
O1181	O118	0.863170	0.832730	0.642040
C1191	C119	0.863440	0.888500	0.877750
C1201	C120	0.509190	0.901030	0.898050
C1211	C121	0.496940	0.956990	0.954960
C1221	C122	0.830440	0.943540	0.931710
C1231	C123	0.827010	0.041330	0.932190
C1241	C124	0.864980	0.097650	0.880700
N1251	N125	0.636260	0.968150	0.619230
U1261	U126	0.336540	0.199820	0.798740
U1271	U127	0.999630	0.206020	0.804260
U1281	U128	0.165990	0.301780	0.700140
O1291	O129	0.166460	0.194740	0.767840
O1301	O130	0.060140	0.873370	0.876450
O1311	O131	0.574580	0.108170	0.872360
O1321	O132	0.080230	0.116310	0.872330
O1331	O133	0.236770	0.866290	0.887240
O1341	O134	0.502880	0.251440	0.785830
O1351	O135	0.304390	0.327470	0.844280
O1361	O136	0.374240	0.073890	0.753630
O1371	O137	0.028220	0.318850	0.864160
O1381	O138	0.192580	0.407570	0.764360
O1391	O139	0.972360	0.092440	0.744940
O1401	O140	0.261040	0.124050	0.875700
O1411	O141	0.398700	0.136370	0.880590
O1421	O142	0.343640	0.268870	0.710550
O1431	O143	0.137400	0.193480	0.636930
C1441	C144	0.170370	0.097730	0.895410
C1451	C145	0.486480	0.104270	0.898650
C1461	C146	0.486830	0.053150	0.955250
C1471	C147	0.167050	0.042380	0.952930
C1481	C148	0.146680	0.947440	0.956250
C1491	C149	0.146930	0.891140	0.902640
N1501	N150	0.340310	0.026890	0.608460
U1511	U151	0.846140	0.310740	0.685160
U1521	U152	0.521210	0.318040	0.700830
U1531	U153	0.664100	0.197180	0.810790
O1541	O154	0.691180	0.302540	0.740570
O1551	O155	0.606340	0.599490	0.627560
O1561	O156	0.110720	0.404290	0.633450
O1571	O157	0.574090	0.394380	0.624830
O1581	O158	0.781770	0.624330	0.623050
O1591	O159	0.000050	0.310060	0.734770
O1601	O160	0.859740	0.167020	0.660970
O1611	O161	0.831980	0.453810	0.707290
O1621	O162	0.544160	0.190540	0.653250
O1631	O163	0.662330	0.102430	0.738550
O1641	O164	0.493340	0.441160	0.749350
O1651	O165	0.715410	0.314670	0.622340
O1661	O166	0.945540	0.359500	0.610670
O1671	O167	0.827300	0.258100	0.778820
O1681	O168	0.667410	0.299420	0.879790
C1691	C169	0.662220	0.381340	0.603200
C1701	C170	0.025100	0.412130	0.604300
C1711	C171	0.024870	0.476190	0.552190
C1721	C172	0.688510	0.431990	0.548500
C1731	C173	0.699140	0.528200	0.549790
C1741	C174	0.695960	0.586960	0.604930
N1751	N175	0.840550	0.468940	0.861910
U1761	U176	0.191540	0.702470	0.695910
U1771	U177	0.513760	0.685780	0.689530
U1781	U178	0.328750	0.813430	0.814600
O1791	O179	0.359140	0.749380	0.726500
O1801	O180	0.364980	0.343930	0.661290
O1811	O181	0.883940	0.630400	0.623330
O1821	O182	0.383100	0.595850	0.660710
O1831	O183	0.219290	0.393260	0.630180
O1841	O184	0.009860	0.698760	0.720750
O1851	O185	0.169760	0.840340	0.661790
O1861	O186	0.214030	0.565850	0.729460
O1871	O187	0.485690	0.780780	0.618160
O1881	O188	0.277140	0.928100	0.762310
O1891	O189	0.543660	0.596210	0.762180
O1901	O190	0.249640	0.652420	0.614160
O1911	O191	0.036690	0.658280	0.656710
O1921	O192	0.176500	0.739910	0.788950
O1931	O193	0.376660	0.696000	0.866510
C1941	C194	0.328950	0.602460	0.614440
C1951	C195	0.981230	0.621980	0.614650
C1961	C196	0.014270	0.573490	0.556210
C1971	C197	0.344960	0.541800	0.563340
C1981	C198	0.357440	0.445470	0.568770
C1991	C199	0.316380	0.392780	0.622450
N2001	N200	0.171450	0.538650	0.884570
C2011	C201	0.178710	0.087020	0.006690
C2021	C202	0.143090	0.902780	0.011380
C2031	C203	0.489350	0.101800	0.009620
H2041	H204	0.192350	0.158940	0.005600
H2051	H205	0.128290	0.831050	0.011760
H2061	H206	0.491980	0.174620	0.007980
C2071	C207	0.837100	0.899850	0.987290
C2081	C208	0.817700	0.086170	0.987180
C2091	C209	0.500380	0.914770	0.010260
H2101	H210	0.847360	0.827510	0.987850
H2111	H211	0.816130	0.159080	0.987280
H2121	H212	0.503840	0.841910	0.011260
C2131	C213	0.333340	0.582120	0.507520
C2141	C214	0.371730	0.398230	0.515330
C2151	C215	0.002650	0.619760	0.500540
H2161	H216	0.317170	0.653540	0.505090
H2171	H217	0.377830	0.325560	0.516850
H2181	H218	0.984440	0.690770	0.502100
C2191	C219	0.684940	0.386010	0.493270
C2201	C220	0.701920	0.572290	0.495950
C2211	C221	0.026930	0.434700	0.496300
H2221	H222	0.671830	0.314030	0.493380
H2231	H223	0.706580	0.645200	0.496160
H2241	H224	0.032640	0.361930	0.494980
H2251	H225	0.240980	0.029850	0.378260
H2261	H226	0.311790	0.105230	0.416100
H2271	H227	0.357030	0.061960	0.353640
H2281	H228	0.524710	0.958000	0.356390
H2291	H229	0.601600	0.002260	0.407830
H2301	H230	0.651070	0.970520	0.343580
H2311	H231	0.155960	0.481300	0.084440
H2321	H232	0.123960	0.585930	0.108450
H2331	H233	0.217810	0.526740	0.141560
H2341	H234	0.799390	0.475050	0.071940
H2351	H235	0.905700	0.511680	0.106220
H2361	H236	0.859670	0.406450	0.119440
H2371	H237	0.649240	0.910100	0.595140
H2381	H238	0.613090	0.020260	0.592270
H2391	H239	0.702990	0.986730	0.640110
H2401	H240	0.324610	0.075400	0.577390
H2411	H241	0.279100	0.021960	0.636570
H2421	H242	0.405160	0.045550	0.631100
H2431	H243	0.785260	0.444720	0.833930
H2441	H244	0.817280	0.530720	0.878690
H2451	H245	0.908650	0.477400	0.839820
H2461	H246	0.119130	0.527880	0.851800
H2471	H247	0.170150	0.606380	0.896560
H2481	H248	0.243940	0.521750	0.870240
H2491	H249	0.610160	0.891020	0.390800
H2501	H250	0.579740	0.955490	0.649410
H2511	H251	0.795280	0.498660	0.143190
H2521	H252	0.850930	0.422960	0.895150
H2531	H253	0.152580	0.498570	0.919650
H2541	H254	0.094770	0.493160	0.148150
H2551	H255	0.352440	0.964670	0.588820
H2561	H256	0.347990	0.995090	0.412650
