data_YARBUQ_clean_PM
_symmetry_space_group_name_H-M	'P1'
_cell_length_a	13.983000
_cell_length_b	23.775600
_cell_length_c	23.775600
_cell_angle_alpha	76.676300
_cell_angle_beta	72.898800
_cell_angle_gamma	72.898700
_symmetry_Int_Tables_number 1

loop_
_symmetry_equiv_pos_as_xyz
'x,y,z'

loop_
_atom_site_label
_atom_site_type_symbol
_atom_site_fract_x
_atom_site_fract_y
_atom_site_fract_z
Ni11	Ni1	0.924330	0.243380	0.645060
Ni21	Ni2	0.803700	0.067980	0.321620
Ni31	Ni3	0.687230	0.743380	0.145060
Ni41	Ni4	0.306700	0.567980	0.821620
H11	H1	0.740300	0.066000	0.747600
H21	H2	0.630200	0.894400	0.034600
H31	H3	0.042200	0.043400	0.349400
H41	H4	0.559000	0.046300	0.350500
H51	H5	0.878200	0.164800	0.829600
H61	H6	0.859600	0.170200	0.929400
H71	H7	0.843000	0.122500	0.028300
H81	H8	0.754200	0.048600	0.060600
H91	H9	0.713200	0.005400	0.995200
H101	H10	0.680600	0.981500	0.862900
H111	H11	0.648300	0.993500	0.928700
H121	H12	0.929900	0.777100	0.972100
H131	H13	0.063700	0.781400	0.881400
H141	H14	0.127100	0.830700	0.787500
H151	H15	0.030600	0.921900	0.751100
H161	H16	0.870700	0.964100	0.808500
H171	H17	0.985400	0.225900	0.370100
H181	H18	0.087600	0.284300	0.385100
H191	H19	0.243800	0.292700	0.393500
H201	H20	0.385800	0.211700	0.385300
H211	H21	0.371600	0.122400	0.368600
H221	H22	0.329700	0.034000	0.386800
H231	H23	0.269000	0.006600	0.359000
H241	H24	0.617700	0.025300	0.161100
H251	H25	0.513700	0.010300	0.103700
H261	H26	0.356800	0.001600	0.096800
H271	H27	0.216600	0.008800	0.178800
H281	H28	0.233400	0.024700	0.267700
H291	H29	0.043700	0.392200	0.824000
H301	H30	0.950400	0.370400	0.869800
H311	H31	0.962600	0.360800	0.662400
H321	H32	0.991800	0.403000	0.732800
H331	H33	0.007700	0.246700	0.843700
H341	H34	0.978400	0.204600	0.773400
H351	H35	0.082800	0.274500	0.883500
H361	H36	0.070900	0.325300	0.918900
H371	H37	0.221000	0.305200	0.811000
H381	H38	0.245900	0.285800	0.873400
H391	H39	0.349200	0.470000	0.745600
H401	H40	0.303500	0.381600	0.754800
H411	H41	0.174900	0.386300	0.929100
H421	H42	0.220600	0.474900	0.919900
H431	H43	0.072100	0.148100	0.698100
H441	H44	0.243300	0.101800	0.676200
H451	H45	0.275400	0.190500	0.511100
H461	H46	0.103800	0.236800	0.532200
H471	H47	0.423800	0.123100	0.602700
H481	H48	0.423100	0.125300	0.536900
H491	H49	0.429700	0.029400	0.549400
H501	H50	0.386500	0.024900	0.618500
H511	H51	0.556000	0.041000	0.618200
H521	H52	0.557100	0.976900	0.608900
H531	H53	0.672300	0.983400	0.402200
H541	H54	0.581000	0.965100	0.498300
H551	H55	0.660500	0.095700	0.537900
H561	H56	0.690800	0.134600	0.435400
H571	H57	0.946100	0.566000	0.247600
H581	H58	0.940800	0.394400	0.534600
H591	H59	0.065000	0.543400	0.849400
H601	H60	0.544200	0.546300	0.850500
H611	H61	0.627400	0.664800	0.329600
H621	H62	0.540800	0.670200	0.429400
H631	H63	0.506200	0.622500	0.528300
H641	H64	0.636600	0.548600	0.560600
H651	H65	0.786200	0.505400	0.495200
H661	H66	0.975000	0.481500	0.362900
H671	H67	0.929500	0.493500	0.428700
H681	H68	0.820900	0.277100	0.472100
H691	H69	0.773500	0.281400	0.381400
H701	H70	0.754700	0.330700	0.287500
H711	H71	0.796400	0.421900	0.251100
H721	H72	0.856700	0.464100	0.308500
H731	H73	0.918600	0.725900	0.870100
H741	H74	0.743000	0.784300	0.885100
H751	H75	0.570000	0.792700	0.893500
H761	H76	0.517200	0.711700	0.885300
H771	H77	0.637400	0.622400	0.868600
H781	H78	0.749500	0.534000	0.886800
H791	H79	0.865400	0.506600	0.859000
H801	H80	0.695900	0.525300	0.661100
H811	H81	0.872300	0.510300	0.603700
H821	H82	0.044800	0.501600	0.596800
H831	H83	0.095800	0.508800	0.678800
H841	H84	0.974200	0.524700	0.767700
H851	H85	0.240100	0.892200	0.324000
H861	H86	0.309400	0.870400	0.369800
H871	H87	0.514200	0.860800	0.162400
H881	H88	0.372400	0.903000	0.232800
H891	H89	0.401900	0.746700	0.343700
H901	H90	0.543600	0.704600	0.273400
H911	H91	0.259200	0.774500	0.383500
H921	H92	0.184900	0.825300	0.418900
H931	H93	0.162800	0.805200	0.311000
H941	H94	0.094900	0.785800	0.373400
H951	H95	0.935200	0.970000	0.245600
H961	H96	0.060100	0.881600	0.254800
H971	H97	0.009700	0.886300	0.429100
H981	H98	0.884600	0.974900	0.419900
H991	H99	0.581700	0.648100	0.198100
H1001	H100	0.478700	0.601800	0.176200
H1011	H101	0.523000	0.690500	0.011100
H1021	H102	0.627200	0.736800	0.032200
H1031	H103	0.350400	0.623100	0.102700
H1041	H104	0.414700	0.625300	0.036900
H1051	H105	0.491500	0.529400	0.049400
H1061	H106	0.470100	0.524900	0.118500
H1071	H107	0.284800	0.541000	0.118200
H1081	H108	0.357100	0.476900	0.108900
H1091	H109	0.442100	0.483400	0.902200
H1101	H110	0.455600	0.465100	0.998300
H1111	H111	0.205900	0.595700	0.037900
H1121	H112	0.239200	0.634600	0.935400
C11	C1	0.835600	0.145300	0.734700
C21	C2	0.740300	0.801800	0.055600
C31	C3	0.843400	0.134600	0.840600
C41	C4	0.819500	0.114300	0.796700
C51	C5	0.772900	0.065900	0.817900
C61	C6	0.759200	0.035000	0.876000
C71	C7	0.773200	0.060100	0.920700
C81	C8	0.815900	0.110200	0.900400
C91	C9	0.836300	0.135600	0.941800
C101	C10	0.820500	0.109400	0.001600
C111	C11	0.771500	0.063000	0.020000
C121	C12	0.746000	0.036600	0.981600
C131	C13	0.706900	0.984300	0.895300
C141	C14	0.891200	0.813700	0.957500
C151	C15	0.795500	0.838900	0.991900
C161	C16	0.737700	0.893600	0.970000
C171	C17	0.775600	0.923200	0.913800
C181	C18	0.871500	0.897900	0.879300
C191	C19	0.929200	0.843200	0.901200
C201	C20	0.025000	0.818000	0.866800
C211	C21	0.063000	0.847500	0.810500
C221	C22	0.005200	0.902300	0.788700
C231	C23	0.909400	0.927500	0.823100
C241	C24	0.928800	0.140100	0.355100
C251	C25	0.677300	0.041900	0.249300
C261	C26	0.042300	0.193400	0.366800
C271	C27	0.033700	0.140000	0.356800
C281	C28	0.118800	0.091500	0.351900
C291	C29	0.212400	0.096400	0.357000
C301	C30	0.221000	0.149900	0.366900
C311	C31	0.135900	0.198400	0.371800
C321	C32	0.144500	0.251800	0.381800
C331	C33	0.238000	0.256900	0.386900
C341	C34	0.323200	0.208300	0.381900
C351	C35	0.314600	0.154900	0.371900
C361	C36	0.299400	0.039900	0.353500
C371	C37	0.561600	0.028100	0.193900
C381	C38	0.571500	0.037700	0.247300
C391	C39	0.487600	0.042000	0.296400
C401	C40	0.393600	0.036800	0.292200
C411	C41	0.383500	0.027200	0.239000
C421	C42	0.467600	0.022800	0.189800
C431	C43	0.457500	0.013200	0.136600
C441	C44	0.363500	0.008000	0.132400
C451	C45	0.279500	0.012300	0.181500
C461	C46	0.289600	0.021800	0.234800
C471	C47	0.016800	0.357300	0.843100
C481	C48	0.971600	0.338000	0.698800
C491	C49	0.989100	0.363200	0.741000
C501	C50	0.002700	0.329000	0.795200
C511	C51	0.998600	0.269600	0.807400
C521	C52	0.981100	0.244300	0.765300
C531	C53	0.089900	0.314800	0.879400
C541	C54	0.203700	0.316400	0.850200
C551	C55	0.314300	0.453300	0.782300
C561	C56	0.286900	0.400300	0.787900
C571	C57	0.234700	0.375200	0.842800
C581	C58	0.209900	0.403100	0.892300
C591	C59	0.237200	0.456200	0.886800
C601	C60	0.112400	0.157100	0.660100
C611	C61	0.216000	0.129200	0.646800
C621	C62	0.280100	0.140600	0.591200
C631	C63	0.234600	0.181700	0.549100
C641	C64	0.131200	0.209700	0.561900
C651	C65	0.393200	0.109700	0.577900
C661	C66	0.432500	0.042500	0.584500
C671	C67	0.542100	0.019000	0.592800
C681	C68	0.666600	0.007800	0.429000
C691	C69	0.612000	0.996900	0.487100
C701	C70	0.601800	0.030800	0.529600
C711	C71	0.651300	0.077100	0.510300
C721	C72	0.686500	0.095400	0.449600
C731	C73	0.784400	0.645300	0.234700
C741	C74	0.902300	0.301800	0.555600
C751	C75	0.681400	0.634600	0.340600
C761	C76	0.769500	0.614300	0.296700
C771	C77	0.843300	0.565900	0.317900
C781	C78	0.829800	0.535000	0.376000
C791	C79	0.746000	0.560100	0.420700
C801	C80	0.673500	0.610200	0.400400
C811	C81	0.586300	0.635600	0.441800
C821	C82	0.568500	0.609400	0.501600
C831	C83	0.645500	0.563000	0.520000
C841	C84	0.735800	0.536600	0.481600
C851	C85	0.913500	0.484300	0.395300
C861	C86	0.837600	0.313700	0.457500
C871	C87	0.873700	0.338900	0.491900
C881	C88	0.898700	0.393600	0.470000
C891	C89	0.887400	0.423200	0.413800
C901	C90	0.851300	0.397900	0.379300
C911	C91	0.826400	0.343200	0.401200
C921	C92	0.790200	0.318000	0.366800
C931	C93	0.779000	0.347500	0.310500
C941	C94	0.803800	0.402300	0.288700
C951	C95	0.840000	0.427500	0.323100
C961	C96	0.076000	0.640100	0.855100
C971	C97	0.531500	0.541900	0.749300
C981	C98	0.897500	0.693400	0.866800
C991	C99	0.969500	0.640000	0.856800
C1001	C100	0.937800	0.591500	0.851900
C1011	C101	0.834200	0.596400	0.857000
C1021	C102	0.762200	0.649900	0.866900
C1031	C103	0.793900	0.698400	0.871800
C1041	C104	0.721900	0.751800	0.881800
C1051	C105	0.618200	0.756900	0.886900
C1061	C106	0.586600	0.708300	0.881900
C1071	C107	0.658600	0.654900	0.871900
C1081	C108	0.807200	0.539900	0.853500
C1091	C109	0.716400	0.528100	0.693900
C1101	C110	0.643500	0.537700	0.747300
C1111	C111	0.674000	0.542000	0.796400
C1121	C112	0.777400	0.536800	0.792200
C1131	C113	0.850300	0.527200	0.739000
C1141	C114	0.819800	0.522800	0.689800
C1151	C115	0.892700	0.513200	0.636600
C1161	C116	0.996100	0.508000	0.632400
C1171	C117	0.026700	0.512300	0.681500
C1181	C118	0.953800	0.521800	0.734800
C1191	C119	0.282800	0.857300	0.343100
C1201	C120	0.491600	0.838000	0.198800
C1211	C121	0.406700	0.863200	0.241000
C1221	C122	0.373100	0.829000	0.295200
C1231	C123	0.424400	0.769600	0.307400
C1241	C124	0.509300	0.744300	0.265300
C1251	C125	0.215900	0.814800	0.379400
C1261	C126	0.129700	0.816400	0.350200
C1271	C127	0.950100	0.953300	0.282300
C1281	C128	0.024900	0.900300	0.287900
C1291	C129	0.047300	0.875200	0.342800
C1301	C130	0.994700	0.903100	0.392300
C1311	C131	0.919800	0.956200	0.386800
C1321	C132	0.570400	0.657100	0.160100
C1331	C133	0.508000	0.629200	0.146800
C1341	C134	0.488100	0.640600	0.091200
C1351	C135	0.534600	0.681700	0.049100
C1361	C136	0.597200	0.709700	0.061900
C1371	C137	0.419200	0.609700	0.077900
C1381	C138	0.440500	0.542500	0.084500
C1391	C139	0.346100	0.519000	0.092800
C1401	C140	0.396600	0.507800	0.929000
C1411	C141	0.404000	0.496900	0.987100
C1421	C142	0.337800	0.530800	0.029600
C1431	C143	0.261300	0.577100	0.010300
C1441	C144	0.268500	0.595400	0.949600
N11	N1	0.067600	0.198200	0.617600
N21	N2	0.714200	0.055000	0.410200
N31	N3	0.967700	0.278500	0.710900
N41	N4	0.289400	0.481300	0.831900
N51	N5	0.616600	0.698200	0.117600
N61	N6	0.320600	0.555000	0.910200
N71	N7	0.542900	0.778500	0.210900
N81	N8	0.897400	0.981300	0.331900
O11	O1	0.884900	0.181400	0.712600
O21	O2	0.819100	0.125800	0.695800
O31	O3	0.663800	0.821400	0.081600
O41	O4	0.806000	0.750300	0.063300
O51	O5	0.736100	0.044000	0.780000
O61	O6	0.641700	0.916200	0.002600
O71	O7	0.919000	0.090600	0.347800
O81	O8	0.855700	0.183200	0.359800
O91	O9	0.690700	0.048300	0.298900
O101	O10	0.747700	0.045600	0.201600
O111	O11	0.102800	0.038700	0.349300
O121	O12	0.500300	0.043600	0.354000
O131	O13	0.721100	0.681400	0.212600
O141	O14	0.859300	0.625800	0.195800
O151	O15	0.933200	0.321400	0.581600
O161	O16	0.880400	0.250300	0.563300
O171	O17	0.939900	0.544000	0.280000
O181	O18	0.939500	0.416200	0.502600
O191	O19	0.142600	0.590600	0.847800
O201	O20	0.101300	0.683200	0.859800
O211	O21	0.462100	0.548300	0.798900
O221	O22	0.505100	0.545600	0.701600
O231	O23	0.009200	0.538700	0.849300
O241	O24	0.602100	0.543600	0.854000
Ni51	Ni5	0.187230	0.645060	0.243380
Ni61	Ni6	0.806700	0.321620	0.067980
Ni71	Ni7	0.424330	0.145060	0.743380
Ni81	Ni8	0.303700	0.821620	0.567980
H1131	H113	0.446100	0.747600	0.066000
H1141	H114	0.440800	0.034600	0.894400
H1151	H115	0.565000	0.349400	0.043400
H1161	H116	0.044200	0.350500	0.046300
H1171	H117	0.127400	0.829600	0.164800
H1181	H118	0.040800	0.929400	0.170200
H1191	H119	0.006200	0.028300	0.122500
H1201	H120	0.136600	0.060600	0.048600
H1211	H121	0.286200	0.995200	0.005400
H1221	H122	0.475000	0.862900	0.981500
H1231	H123	0.429500	0.928700	0.993500
H1241	H124	0.320900	0.972100	0.777100
H1251	H125	0.273500	0.881400	0.781400
H1261	H126	0.254700	0.787500	0.830700
H1271	H127	0.296400	0.751100	0.921900
H1281	H128	0.356700	0.808500	0.964100
H1291	H129	0.418600	0.370100	0.225900
H1301	H130	0.243000	0.385100	0.284300
H1311	H131	0.070000	0.393500	0.292700
H1321	H132	0.017200	0.385300	0.211700
H1331	H133	0.137400	0.368600	0.122400
H1341	H134	0.249500	0.386800	0.034000
H1351	H135	0.365400	0.359000	0.006600
H1361	H136	0.195900	0.161100	0.025300
H1371	H137	0.372300	0.103700	0.010300
H1381	H138	0.544800	0.096800	0.001600
H1391	H139	0.595800	0.178800	0.008800
H1401	H140	0.474200	0.267700	0.024700
H1411	H141	0.740100	0.824000	0.392200
H1421	H142	0.809400	0.869800	0.370400
H1431	H143	0.014200	0.662400	0.360800
H1441	H144	0.872400	0.732800	0.403000
H1451	H145	0.901900	0.843700	0.246700
H1461	H146	0.043600	0.773400	0.204600
H1471	H147	0.759200	0.883500	0.274500
H1481	H148	0.684900	0.918900	0.325300
H1491	H149	0.662800	0.811000	0.305200
H1501	H150	0.594900	0.873400	0.285800
H1511	H151	0.435200	0.745600	0.470000
H1521	H152	0.560100	0.754800	0.381600
H1531	H153	0.509700	0.929100	0.386300
H1541	H154	0.384600	0.919900	0.474900
H1551	H155	0.081700	0.698100	0.148100
H1561	H156	0.978700	0.676200	0.101800
H1571	H157	0.023000	0.511100	0.190500
H1581	H158	0.127200	0.532200	0.236800
H1591	H159	0.850400	0.602700	0.123100
H1601	H160	0.914700	0.536900	0.125300
H1611	H161	0.991500	0.549400	0.029400
H1621	H162	0.970100	0.618500	0.024900
H1631	H163	0.784800	0.618200	0.041000
H1641	H164	0.857100	0.608900	0.976900
H1651	H165	0.942100	0.402200	0.983400
H1661	H166	0.955600	0.498300	0.965100
H1671	H167	0.705900	0.537900	0.095700
H1681	H168	0.739200	0.435400	0.134600
H1691	H169	0.240300	0.247600	0.566000
H1701	H170	0.130200	0.534600	0.394400
H1711	H171	0.542200	0.849400	0.543400
H1721	H172	0.059000	0.850500	0.546300
H1731	H173	0.378200	0.329600	0.664800
H1741	H174	0.359600	0.429400	0.670200
H1751	H175	0.343000	0.528300	0.622500
H1761	H176	0.254200	0.560600	0.548600
H1771	H177	0.213200	0.495200	0.505400
H1781	H178	0.180600	0.362900	0.481500
H1791	H179	0.148300	0.428700	0.493500
H1801	H180	0.429900	0.472100	0.277100
H1811	H181	0.563700	0.381400	0.281400
H1821	H182	0.627100	0.287500	0.330700
H1831	H183	0.530600	0.251100	0.421900
H1841	H184	0.370700	0.308500	0.464100
H1851	H185	0.485400	0.870100	0.725900
H1861	H186	0.587600	0.885100	0.784300
H1871	H187	0.743800	0.893500	0.792700
H1881	H188	0.885800	0.885300	0.711700
H1891	H189	0.871600	0.868600	0.622400
H1901	H190	0.829700	0.886800	0.534000
H1911	H191	0.769000	0.859000	0.506600
H1921	H192	0.117700	0.661100	0.525300
H1931	H193	0.013700	0.603700	0.510300
H1941	H194	0.856800	0.596800	0.501600
H1951	H195	0.716600	0.678800	0.508800
H1961	H196	0.733400	0.767700	0.524700
H1971	H197	0.543700	0.324000	0.892200
H1981	H198	0.450400	0.369800	0.870400
H1991	H199	0.462600	0.162400	0.860800
H2001	H200	0.491800	0.232800	0.903000
H2011	H201	0.507700	0.343700	0.746700
H2021	H202	0.478400	0.273400	0.704600
H2031	H203	0.582800	0.383500	0.774500
H2041	H204	0.570900	0.418900	0.825300
H2051	H205	0.721000	0.311000	0.805200
H2061	H206	0.745900	0.373400	0.785800
H2071	H207	0.849200	0.245600	0.970000
H2081	H208	0.803500	0.254800	0.881600
H2091	H209	0.674900	0.429100	0.886300
H2101	H210	0.720600	0.419900	0.974900
H2111	H211	0.572100	0.198100	0.648100
H2121	H212	0.743300	0.176200	0.601800
H2131	H213	0.775400	0.011100	0.690500
H2141	H214	0.603800	0.032200	0.736800
H2151	H215	0.923800	0.102700	0.623100
H2161	H216	0.923100	0.036900	0.625300
H2171	H217	0.929700	0.049400	0.529400
H2181	H218	0.886500	0.118500	0.524900
H2191	H219	0.056000	0.118200	0.541000
H2201	H220	0.057100	0.108900	0.476900
H2211	H221	0.172300	0.902200	0.483400
H2221	H222	0.081000	0.998300	0.465100
H2231	H223	0.160500	0.037900	0.595700
H2241	H224	0.190800	0.935400	0.634600
C1451	C145	0.284400	0.734700	0.145300
C1461	C146	0.402300	0.055600	0.801800
C1471	C147	0.181400	0.840600	0.134600
C1481	C148	0.269500	0.796700	0.114300
C1491	C149	0.343300	0.817900	0.065900
C1501	C150	0.329800	0.876000	0.035000
C1511	C151	0.246000	0.920700	0.060100
C1521	C152	0.173500	0.900400	0.110200
C1531	C153	0.086300	0.941800	0.135600
C1541	C154	0.068500	0.001600	0.109400
C1551	C155	0.145500	0.020000	0.063000
C1561	C156	0.235800	0.981600	0.036600
C1571	C157	0.413500	0.895300	0.984300
C1581	C158	0.337600	0.957500	0.813700
C1591	C159	0.373700	0.991900	0.838900
C1601	C160	0.398700	0.970000	0.893600
C1611	C161	0.387400	0.913800	0.923200
C1621	C162	0.351300	0.879300	0.897900
C1631	C163	0.326400	0.901200	0.843200
C1641	C164	0.290200	0.866800	0.818000
C1651	C165	0.279000	0.810500	0.847500
C1661	C166	0.303800	0.788700	0.902300
C1671	C167	0.340000	0.823100	0.927500
C1681	C168	0.576000	0.355100	0.140100
C1691	C169	0.031500	0.249300	0.041900
C1701	C170	0.397500	0.366800	0.193400
C1711	C171	0.469500	0.356800	0.140000
C1721	C172	0.437800	0.351900	0.091500
C1731	C173	0.334200	0.357000	0.096400
C1741	C174	0.262200	0.366900	0.149900
C1751	C175	0.293900	0.371800	0.198400
C1761	C176	0.221900	0.381800	0.251800
C1771	C177	0.118200	0.386900	0.256900
C1781	C178	0.086600	0.381900	0.208300
C1791	C179	0.158600	0.371900	0.154900
C1801	C180	0.307200	0.353500	0.039900
C1811	C181	0.216400	0.193900	0.028100
C1821	C182	0.143500	0.247300	0.037700
C1831	C183	0.174000	0.296400	0.042000
C1841	C184	0.277400	0.292200	0.036800
C1851	C185	0.350300	0.239000	0.027200
C1861	C186	0.319800	0.189800	0.022800
C1871	C187	0.392700	0.136600	0.013200
C1881	C188	0.496100	0.132400	0.008000
C1891	C189	0.526700	0.181500	0.012300
C1901	C190	0.453800	0.234800	0.021800
C1911	C191	0.782800	0.843100	0.357300
C1921	C192	0.991600	0.698800	0.338000
C1931	C193	0.906700	0.741000	0.363200
C1941	C194	0.873100	0.795200	0.329000
C1951	C195	0.924400	0.807400	0.269600
C1961	C196	0.009300	0.765300	0.244300
C1971	C197	0.715900	0.879400	0.314800
C1981	C198	0.629700	0.850200	0.316400
C1991	C199	0.450100	0.782300	0.453300
C2001	C200	0.524900	0.787900	0.400300
C2011	C201	0.547300	0.842800	0.375200
C2021	C202	0.494700	0.892300	0.403100
C2031	C203	0.419800	0.886800	0.456200
C2041	C204	0.070400	0.660100	0.157100
C2051	C205	0.008000	0.646800	0.129200
C2061	C206	0.988100	0.591200	0.140600
C2071	C207	0.034600	0.549100	0.181700
C2081	C208	0.097200	0.561900	0.209700
C2091	C209	0.919200	0.577900	0.109700
C2101	C210	0.940500	0.584500	0.042500
C2111	C211	0.846100	0.592800	0.019000
C2121	C212	0.896600	0.429000	0.007800
C2131	C213	0.904000	0.487100	0.996900
C2141	C214	0.837800	0.529600	0.030800
C2151	C215	0.761300	0.510300	0.077100
C2161	C216	0.768500	0.449600	0.095400
C2171	C217	0.335600	0.234700	0.645300
C2181	C218	0.240300	0.555600	0.301800
C2191	C219	0.343400	0.340600	0.634600
C2201	C220	0.319500	0.296700	0.614300
C2211	C221	0.272900	0.317900	0.565900
C2221	C222	0.259200	0.376000	0.535000
C2231	C223	0.273200	0.420700	0.560100
C2241	C224	0.315900	0.400400	0.610200
C2251	C225	0.336300	0.441800	0.635600
C2261	C226	0.320500	0.501600	0.609400
C2271	C227	0.271500	0.520000	0.563000
C2281	C228	0.246000	0.481600	0.536600
C2291	C229	0.206900	0.395300	0.484300
C2301	C230	0.391200	0.457500	0.313700
C2311	C231	0.295500	0.491900	0.338900
C2321	C232	0.237700	0.470000	0.393600
C2331	C233	0.275600	0.413800	0.423200
C2341	C234	0.371500	0.379300	0.397900
C2351	C235	0.429200	0.401200	0.343200
C2361	C236	0.525000	0.366800	0.318000
C2371	C237	0.563000	0.310500	0.347500
C2381	C238	0.505200	0.288700	0.402300
C2391	C239	0.409400	0.323100	0.427500
C2401	C240	0.428800	0.855100	0.640100
C2411	C241	0.177300	0.749300	0.541900
C2421	C242	0.542300	0.866800	0.693400
C2431	C243	0.533700	0.856800	0.640000
C2441	C244	0.618800	0.851900	0.591500
C2451	C245	0.712400	0.857000	0.596400
C2461	C246	0.721000	0.866900	0.649900
C2471	C247	0.635900	0.871800	0.698400
C2481	C248	0.644500	0.881800	0.751800
C2491	C249	0.738000	0.886900	0.756900
C2501	C250	0.823200	0.881900	0.708300
C2511	C251	0.814600	0.871900	0.654900
C2521	C252	0.799400	0.853500	0.539900
C2531	C253	0.061600	0.693900	0.528100
C2541	C254	0.071500	0.747300	0.537700
C2551	C255	0.987600	0.796400	0.542000
C2561	C256	0.893600	0.792200	0.536800
C2571	C257	0.883500	0.739000	0.527200
C2581	C258	0.967600	0.689800	0.522800
C2591	C259	0.957500	0.636600	0.513200
C2601	C260	0.863500	0.632400	0.508000
C2611	C261	0.779500	0.681500	0.512300
C2621	C262	0.789600	0.734800	0.521800
C2631	C263	0.516800	0.343100	0.857300
C2641	C264	0.471600	0.198800	0.838000
C2651	C265	0.489100	0.241000	0.863200
C2661	C266	0.502700	0.295200	0.829000
C2671	C267	0.498600	0.307400	0.769600
C2681	C268	0.481100	0.265300	0.744300
C2691	C269	0.589900	0.379400	0.814800
C2701	C270	0.703700	0.350200	0.816400
C2711	C271	0.814300	0.282300	0.953300
C2721	C272	0.786900	0.287900	0.900300
C2731	C273	0.734700	0.342800	0.875200
C2741	C274	0.709900	0.392300	0.903100
C2751	C275	0.737200	0.386800	0.956200
C2761	C276	0.612400	0.160100	0.657100
C2771	C277	0.716000	0.146800	0.629200
C2781	C278	0.780100	0.091200	0.640600
C2791	C279	0.734600	0.049100	0.681700
C2801	C280	0.631200	0.061900	0.709700
C2811	C281	0.893200	0.077900	0.609700
C2821	C282	0.932500	0.084500	0.542500
C2831	C283	0.042100	0.092800	0.519000
C2841	C284	0.166600	0.929000	0.507800
C2851	C285	0.112000	0.987100	0.496900
C2861	C286	0.101800	0.029600	0.530800
C2871	C287	0.151300	0.010300	0.577100
C2881	C288	0.186500	0.949600	0.595400
N91	N9	0.116600	0.617600	0.198200
N101	N10	0.820600	0.410200	0.055000
N111	N11	0.042900	0.710900	0.278500
N121	N12	0.397400	0.831900	0.481300
N131	N13	0.567600	0.117600	0.698200
N141	N14	0.214200	0.910200	0.555000
N151	N15	0.467700	0.210900	0.778500
N161	N16	0.789400	0.331900	0.981300
O251	O25	0.221100	0.712600	0.181400
O261	O26	0.359300	0.695800	0.125800
O271	O27	0.433200	0.081600	0.821400
O281	O28	0.380400	0.063300	0.750300
O291	O29	0.439900	0.780000	0.044000
O301	O30	0.439500	0.002600	0.916200
O311	O31	0.642600	0.347800	0.090600
O321	O32	0.601300	0.359800	0.183200
O331	O33	0.962100	0.298900	0.048300
O341	O34	0.005100	0.201600	0.045600
O351	O35	0.509200	0.349300	0.038700
O361	O36	0.102100	0.354000	0.043600
O371	O37	0.384900	0.212600	0.681400
O381	O38	0.319100	0.195800	0.625800
O391	O39	0.163800	0.581600	0.321400
O401	O40	0.306000	0.563300	0.250300
O411	O41	0.236100	0.280000	0.544000
O421	O42	0.141700	0.502600	0.416200
O431	O43	0.419000	0.847800	0.590600
O441	O44	0.355700	0.859800	0.683200
O451	O45	0.190700	0.798900	0.548300
O461	O46	0.247700	0.701600	0.545600
O471	O47	0.602800	0.849300	0.538700
O481	O48	0.000300	0.854000	0.543600
