data_YARBAW_clean_PM
_symmetry_space_group_name_H-M	'P1'
_cell_length_a	19.469000
_cell_length_b	18.077000
_cell_length_c	13.265000
_cell_angle_alpha	90.000000
_cell_angle_beta	131.213000
_cell_angle_gamma	90.000000
_symmetry_Int_Tables_number 1

loop_
_symmetry_equiv_pos_as_xyz
'x,y,z'

loop_
_atom_site_label
_atom_site_type_symbol
_atom_site_fract_x
_atom_site_fract_y
_atom_site_fract_z
O11	O1	0.876310	0.964140	0.433400
O21	O2	0.846700	0.043700	0.528000
O31	O3	0.686800	0.055500	0.442100
H11	H1	0.742200	0.061400	0.491700
N11	N1	0.066600	0.916310	0.643300
C11	C1	0.823300	0.994600	0.442100
C21	C2	0.695600	0.923800	0.244800
H21	H2	0.738300	0.901900	0.243900
C31	C3	0.723500	0.973100	0.341100
C41	C4	0.659300	0.006500	0.344100
C51	C5	0.566800	0.989200	0.248800
C61	C6	0.537400	0.939500	0.146600
C71	C7	0.602400	0.904700	0.145000
C81	C8	0.572200	0.856200	0.042200
H31	H3	0.614600	0.834200	0.040400
C91	C9	0.481200	0.839900	0.942700
H41	H4	0.462300	0.806400	0.875500
C101	C10	0.417800	0.873700	0.943700
H51	H5	0.356100	0.862600	0.876600
C111	C11	0.444000	0.922500	0.040300
H61	H6	0.399900	0.945400	0.037100
H71	H7	0.535400	0.063500	0.328100
C121	C12	0.029700	0.849000	0.621000
H81	H8	0.973200	0.839000	0.537500
C131	C13	0.072400	0.794500	0.716700
H91	H9	0.045000	0.748300	0.696300
C141	C14	0.155500	0.807400	0.842600
C151	C15	0.193000	0.876500	0.864200
H101	H10	0.249500	0.887800	0.947000
C161	C16	0.147600	0.928900	0.764200
H111	H11	0.174500	0.975100	0.781700
C171	C17	0.201500	0.748400	0.948100
H121	H12	0.186000	0.701000	0.903600
H131	H13	0.175400	0.749500	0.990000
O41	O4	0.376310	0.464140	0.433400
O51	O5	0.346700	0.543700	0.528000
O61	O6	0.186800	0.555500	0.442100
H141	H14	0.242200	0.561400	0.491700
N21	N2	0.566600	0.416310	0.643300
C181	C18	0.323300	0.494600	0.442100
C191	C19	0.195600	0.423800	0.244800
H151	H15	0.238300	0.401900	0.243900
C201	C20	0.223500	0.473100	0.341100
C211	C21	0.159300	0.506500	0.344100
C221	C22	0.066800	0.489200	0.248800
C231	C23	0.037400	0.439500	0.146600
C241	C24	0.102400	0.404700	0.145000
C251	C25	0.072200	0.356200	0.042200
H161	H16	0.114600	0.334200	0.040400
C261	C26	0.981200	0.339900	0.942700
H171	H17	0.962300	0.306400	0.875500
C271	C27	0.917800	0.373700	0.943700
H181	H18	0.856100	0.362600	0.876600
C281	C28	0.944000	0.422500	0.040300
H191	H19	0.899900	0.445400	0.037100
H201	H20	0.035400	0.563500	0.328100
C291	C29	0.529700	0.349000	0.621000
H211	H21	0.473200	0.339000	0.537500
C301	C30	0.572400	0.294500	0.716700
H221	H22	0.545000	0.248300	0.696300
C311	C31	0.655500	0.307400	0.842600
C321	C32	0.693000	0.376500	0.864200
H231	H23	0.749500	0.387800	0.947000
C331	C33	0.647600	0.428900	0.764200
H241	H24	0.674500	0.475100	0.781700
C341	C34	0.701500	0.248400	0.948100
H251	H25	0.686000	0.201000	0.903600
H261	H26	0.675400	0.249500	0.990000
O71	O7	0.123690	0.964140	0.066600
O81	O8	0.153300	0.043700	0.972000
O91	O9	0.313200	0.055500	0.057900
H271	H27	0.257800	0.061400	0.008300
N31	N3	0.933400	0.916310	0.856700
C351	C35	0.176700	0.994600	0.057900
C361	C36	0.304400	0.923800	0.255200
H281	H28	0.261700	0.901900	0.256100
C371	C37	0.276500	0.973100	0.158900
C381	C38	0.340700	0.006500	0.155900
C391	C39	0.433200	0.989200	0.251200
C401	C40	0.462600	0.939500	0.353400
C411	C41	0.397600	0.904700	0.355000
C421	C42	0.427800	0.856200	0.457800
H291	H29	0.385400	0.834200	0.459600
C431	C43	0.518800	0.839900	0.557300
H301	H30	0.537700	0.806400	0.624500
C441	C44	0.582200	0.873700	0.556300
H311	H31	0.643900	0.862600	0.623400
C451	C45	0.556000	0.922500	0.459700
H321	H32	0.600100	0.945400	0.462900
H331	H33	0.464600	0.063500	0.171900
C461	C46	0.970300	0.849000	0.879000
H341	H34	0.026800	0.839000	0.962500
C471	C47	0.927600	0.794500	0.783300
H351	H35	0.955000	0.748300	0.803700
C481	C48	0.844500	0.807400	0.657400
C491	C49	0.807000	0.876500	0.635800
H361	H36	0.750500	0.887800	0.553000
C501	C50	0.852400	0.928900	0.735800
H371	H37	0.825500	0.975100	0.718300
C511	C51	0.798500	0.748400	0.551900
H381	H38	0.814000	0.701000	0.596400
H391	H39	0.824600	0.749500	0.510000
O101	O10	0.623690	0.464140	0.066600
O111	O11	0.653300	0.543700	0.972000
O121	O12	0.813200	0.555500	0.057900
H401	H40	0.757800	0.561400	0.008300
N41	N4	0.433400	0.416310	0.856700
C521	C52	0.676700	0.494600	0.057900
C531	C53	0.804400	0.423800	0.255200
H411	H41	0.761700	0.401900	0.256100
C541	C54	0.776500	0.473100	0.158900
C551	C55	0.840700	0.506500	0.155900
C561	C56	0.933200	0.489200	0.251200
C571	C57	0.962600	0.439500	0.353400
C581	C58	0.897600	0.404700	0.355000
C591	C59	0.927800	0.356200	0.457800
H421	H42	0.885400	0.334200	0.459600
C601	C60	0.018800	0.339900	0.557300
H431	H43	0.037700	0.306400	0.624500
C611	C61	0.082200	0.373700	0.556300
H441	H44	0.143900	0.362600	0.623400
C621	C62	0.056000	0.422500	0.459700
H451	H45	0.100100	0.445400	0.462900
H461	H46	0.964600	0.563500	0.171900
C631	C63	0.470300	0.349000	0.879000
H471	H47	0.526800	0.339000	0.962500
C641	C64	0.427600	0.294500	0.783300
H481	H48	0.455000	0.248300	0.803700
C651	C65	0.344500	0.307400	0.657400
C661	C66	0.307000	0.376500	0.635800
H491	H49	0.250500	0.387800	0.553000
C671	C67	0.352400	0.428900	0.735800
H501	H50	0.325500	0.475100	0.718300
C681	C68	0.298500	0.248400	0.551900
H511	H51	0.314000	0.201000	0.596400
H521	H52	0.324600	0.249500	0.510000
O131	O13	0.123690	0.035860	0.566600
O141	O14	0.153300	0.956300	0.472000
O151	O15	0.313200	0.944500	0.557900
H531	H53	0.257800	0.938600	0.508300
N51	N5	0.933400	0.083690	0.356700
C691	C69	0.176700	0.005400	0.557900
C701	C70	0.304400	0.076200	0.755200
H541	H54	0.261700	0.098100	0.756100
C711	C71	0.276500	0.026900	0.658900
C721	C72	0.340700	0.993500	0.655900
C731	C73	0.433200	0.010800	0.751200
C741	C74	0.462600	0.060500	0.853400
C751	C75	0.397600	0.095300	0.855000
C761	C76	0.427800	0.143800	0.957800
H551	H55	0.385400	0.165800	0.959600
C771	C77	0.518800	0.160100	0.057300
H561	H56	0.537700	0.193600	0.124500
C781	C78	0.582200	0.126300	0.056300
H571	H57	0.643900	0.137400	0.123400
C791	C79	0.556000	0.077500	0.959700
H581	H58	0.600100	0.054600	0.962900
H591	H59	0.464600	0.936500	0.671900
C801	C80	0.970300	0.151000	0.379000
H601	H60	0.026800	0.161000	0.462500
C811	C81	0.927600	0.205500	0.283300
H611	H61	0.955000	0.251700	0.303700
C821	C82	0.844500	0.192600	0.157400
C831	C83	0.807000	0.123500	0.135800
H621	H62	0.750500	0.112200	0.053000
C841	C84	0.852400	0.071100	0.235800
H631	H63	0.825500	0.024900	0.218300
C851	C85	0.798500	0.251600	0.051900
H641	H64	0.814000	0.299000	0.096400
H651	H65	0.824600	0.250500	0.010000
O161	O16	0.623690	0.535860	0.566600
O171	O17	0.653300	0.456300	0.472000
O181	O18	0.813200	0.444500	0.557900
H661	H66	0.757800	0.438600	0.508300
N61	N6	0.433400	0.583690	0.356700
C861	C86	0.676700	0.505400	0.557900
C871	C87	0.804400	0.576200	0.755200
H671	H67	0.761700	0.598100	0.756100
C881	C88	0.776500	0.526900	0.658900
C891	C89	0.840700	0.493500	0.655900
C901	C90	0.933200	0.510800	0.751200
C911	C91	0.962600	0.560500	0.853400
C921	C92	0.897600	0.595300	0.855000
C931	C93	0.927800	0.643800	0.957800
H681	H68	0.885400	0.665800	0.959600
C941	C94	0.018800	0.660100	0.057300
H691	H69	0.037700	0.693600	0.124500
C951	C95	0.082200	0.626300	0.056300
H701	H70	0.143900	0.637400	0.123400
C961	C96	0.056000	0.577500	0.959700
H711	H71	0.100100	0.554600	0.962900
H721	H72	0.964600	0.436500	0.671900
C971	C97	0.470300	0.651000	0.379000
H731	H73	0.526800	0.661000	0.462500
C981	C98	0.427600	0.705500	0.283300
H741	H74	0.455000	0.751700	0.303700
C991	C99	0.344500	0.692600	0.157400
C1001	C100	0.307000	0.623500	0.135800
H751	H75	0.250500	0.612200	0.053000
C1011	C101	0.352400	0.571100	0.235800
H761	H76	0.325500	0.524900	0.218300
C1021	C102	0.298500	0.751600	0.051900
H771	H77	0.314000	0.799000	0.096400
H781	H78	0.324600	0.750500	0.010000
O191	O19	0.876310	0.035860	0.933400
O201	O20	0.846700	0.956300	0.028000
O211	O21	0.686800	0.944500	0.942100
H791	H79	0.742200	0.938600	0.991700
N71	N7	0.066600	0.083690	0.143300
C1031	C103	0.823300	0.005400	0.942100
C1041	C104	0.695600	0.076200	0.744800
H801	H80	0.738300	0.098100	0.743900
C1051	C105	0.723500	0.026900	0.841100
C1061	C106	0.659300	0.993500	0.844100
C1071	C107	0.566800	0.010800	0.748800
C1081	C108	0.537400	0.060500	0.646600
C1091	C109	0.602400	0.095300	0.645000
C1101	C110	0.572200	0.143800	0.542200
H811	H81	0.614600	0.165800	0.540400
C1111	C111	0.481200	0.160100	0.442700
H821	H82	0.462300	0.193600	0.375500
C1121	C112	0.417800	0.126300	0.443700
H831	H83	0.356100	0.137400	0.376600
C1131	C113	0.444000	0.077500	0.540300
H841	H84	0.399900	0.054600	0.537100
H851	H85	0.535400	0.936500	0.828100
C1141	C114	0.029700	0.151000	0.121000
H861	H86	0.973200	0.161000	0.037500
C1151	C115	0.072400	0.205500	0.216700
H871	H87	0.045000	0.251700	0.196300
C1161	C116	0.155500	0.192600	0.342600
C1171	C117	0.193000	0.123500	0.364200
H881	H88	0.249500	0.112200	0.447000
C1181	C118	0.147600	0.071100	0.264200
H891	H89	0.174500	0.024900	0.281700
C1191	C119	0.201500	0.251600	0.448100
H901	H90	0.186000	0.299000	0.403600
H911	H91	0.175400	0.250500	0.490000
O221	O22	0.376310	0.535860	0.933400
O231	O23	0.346700	0.456300	0.028000
O241	O24	0.186800	0.444500	0.942100
H921	H92	0.242200	0.438600	0.991700
N81	N8	0.566600	0.583690	0.143300
C1201	C120	0.323300	0.505400	0.942100
C1211	C121	0.195600	0.576200	0.744800
H931	H93	0.238300	0.598100	0.743900
C1221	C122	0.223500	0.526900	0.841100
C1231	C123	0.159300	0.493500	0.844100
C1241	C124	0.066800	0.510800	0.748800
C1251	C125	0.037400	0.560500	0.646600
C1261	C126	0.102400	0.595300	0.645000
C1271	C127	0.072200	0.643800	0.542200
H941	H94	0.114600	0.665800	0.540400
C1281	C128	0.981200	0.660100	0.442700
H951	H95	0.962300	0.693600	0.375500
C1291	C129	0.917800	0.626300	0.443700
H961	H96	0.856100	0.637400	0.376600
C1301	C130	0.944000	0.577500	0.540300
H971	H97	0.899900	0.554600	0.537100
H981	H98	0.035400	0.436500	0.828100
C1311	C131	0.529700	0.651000	0.121000
H991	H99	0.473200	0.661000	0.037500
C1321	C132	0.572400	0.705500	0.216700
H1001	H100	0.545000	0.751700	0.196300
C1331	C133	0.655500	0.692600	0.342600
C1341	C134	0.693000	0.623500	0.364200
H1011	H101	0.749500	0.612200	0.447000
C1351	C135	0.647600	0.571100	0.264200
H1021	H102	0.674500	0.524900	0.281700
C1361	C136	0.701500	0.751600	0.448100
H1031	H103	0.686000	0.799000	0.403600
H1041	H104	0.675400	0.750500	0.490000
Ni11	Ni1	0.000000	0.000000	0.500000
Ni21	Ni2	0.500000	0.500000	0.500000
Ni31	Ni3	0.000000	0.000000	0.000000
Ni41	Ni4	0.500000	0.500000	0.000000
C1371	C137	0.500000	0.031600	0.250000
C1381	C138	0.000000	0.531600	0.250000
C1391	C139	0.500000	0.968400	0.750000
C1401	C140	0.000000	0.468400	0.750000
