data_YARDIG_clean_PM
_symmetry_space_group_name_H-M	'P1'
_cell_length_a	11.453900
_cell_length_b	11.727000
_cell_length_c	14.138900
_cell_angle_alpha	112.657000
_cell_angle_beta	90.000000
_cell_angle_gamma	119.232000
_symmetry_Int_Tables_number 1

loop_
_symmetry_equiv_pos_as_xyz
'x,y,z'

loop_
_atom_site_label
_atom_site_type_symbol
_atom_site_fract_x
_atom_site_fract_y
_atom_site_fract_z
Co11	Co1	0.014390	0.000000	0.750000
Co21	Co2	0.985610	0.000000	0.250000
H11	H1	0.163100	0.700600	0.648200
H21	H2	0.207800	0.524600	0.547500
H31	H3	0.948400	0.161000	0.964500
H41	H4	0.802800	0.743000	0.804400
H51	H5	0.698300	0.775000	0.955600
H61	H6	0.761100	0.024600	0.134500
H71	H7	0.833100	0.167600	0.118800
H81	H8	0.513300	0.854000	0.065800
H91	H9	0.301000	0.798600	0.993500
H101	H10	0.462500	0.299400	0.851800
H111	H11	0.683200	0.475400	0.952500
H121	H12	0.787400	0.839000	0.535500
H131	H13	0.059800	0.257000	0.695600
H141	H14	0.923300	0.225000	0.544400
H151	H15	0.736500	0.975400	0.365500
H161	H16	0.665500	0.832400	0.381200
H171	H17	0.659300	0.146000	0.434200
H181	H18	0.502400	0.201400	0.506500
H191	H19	0.836900	0.299400	0.351800
H201	H20	0.792200	0.475400	0.452500
H211	H21	0.051600	0.839000	0.035500
H221	H22	0.197200	0.257000	0.195600
H231	H23	0.301700	0.225000	0.044400
H241	H24	0.238900	0.975400	0.865500
H251	H25	0.166900	0.832400	0.881200
H261	H26	0.486700	0.146000	0.934200
H271	H27	0.699000	0.201400	0.006500
H281	H28	0.537500	0.700600	0.148200
H291	H29	0.316800	0.524600	0.047500
H301	H30	0.212600	0.161000	0.464500
H311	H31	0.940200	0.743000	0.304400
H321	H32	0.076700	0.775000	0.455600
H331	H33	0.263500	0.024600	0.634500
H341	H34	0.334500	0.167600	0.618800
H351	H35	0.340700	0.854000	0.565800
H361	H36	0.497600	0.798600	0.493500
C11	C1	0.947020	0.724240	0.623910
C21	C2	0.973160	0.606320	0.560920
C31	C3	0.097370	0.619740	0.588490
C41	C4	0.124460	0.514520	0.528290
C51	C5	0.899660	0.060960	0.943040
C61	C6	0.819180	0.831360	0.855480
C71	C7	0.761320	0.848240	0.938970
C81	C8	0.767250	0.063300	0.083890
C91	C9	0.627960	0.033320	0.044240
C101	C10	0.508210	0.913220	0.039400
C111	C11	0.380710	0.879620	0.995800
C121	C12	0.222780	0.275760	0.876090
C131	C13	0.366840	0.393680	0.939080
C141	C14	0.477630	0.380260	0.911510
C151	C15	0.609940	0.485480	0.971710
C161	C16	0.838700	0.939040	0.556960
C171	C17	0.987820	0.168640	0.644520
C181	C18	0.913080	0.151760	0.561030
C191	C19	0.703950	0.936700	0.416110
C201	C20	0.594640	0.966680	0.455760
C211	C21	0.594990	0.086780	0.460600
C221	C22	0.501090	0.120380	0.504200
C231	C23	0.052980	0.275760	0.376090
C241	C24	0.026840	0.393680	0.439080
C251	C25	0.902630	0.380260	0.411510
C261	C26	0.875540	0.485480	0.471710
C271	C27	0.100340	0.939040	0.056960
C281	C28	0.180820	0.168640	0.144520
C291	C29	0.238680	0.151760	0.061030
C301	C30	0.232750	0.936700	0.916110
C311	C31	0.372040	0.966680	0.955760
C321	C32	0.491790	0.086780	0.960600
C331	C33	0.619290	0.120380	0.004200
C341	C34	0.777220	0.724240	0.123910
C351	C35	0.633160	0.606320	0.060920
C361	C36	0.522370	0.619740	0.088490
C371	C37	0.390060	0.514520	0.028290
C381	C38	0.161300	0.060960	0.443040
C391	C39	0.012180	0.831360	0.355480
C401	C40	0.086920	0.848240	0.438970
C411	C41	0.296050	0.063300	0.583890
C421	C42	0.405360	0.033320	0.544240
C431	C43	0.405010	0.913220	0.539400
C441	C44	0.498910	0.879620	0.495800
N11	N1	0.906210	0.965340	0.857710
N21	N2	0.813430	0.994160	0.994240
N31	N3	0.940870	0.034660	0.642290
N41	N4	0.819270	0.005840	0.505760
N51	N5	0.093790	0.034660	0.142290
N61	N6	0.186570	0.005840	0.005760
N71	N7	0.059130	0.965340	0.357710
N81	N8	0.180730	0.994160	0.494240
O11	O1	0.053110	0.844760	0.686900
O21	O2	0.830090	0.702520	0.610860
O31	O3	0.208350	0.155240	0.813100
O41	O4	0.127570	0.297480	0.889140
O51	O5	0.946890	0.155240	0.313100
O61	O6	0.169910	0.297480	0.389140
O71	O7	0.791650	0.844760	0.186900
O81	O8	0.872430	0.702520	0.110860
