data_YARGAB_clean_PM
_symmetry_space_group_name_H-M	'P1'
_cell_length_a	15.578000
_cell_length_b	15.578000
_cell_length_c	16.521000
_cell_angle_alpha	90.000000
_cell_angle_beta	90.000000
_cell_angle_gamma	120.000000
_symmetry_Int_Tables_number 1

loop_
_symmetry_equiv_pos_as_xyz
'x,y,z'

loop_
_atom_site_label
_atom_site_type_symbol
_atom_site_fract_x
_atom_site_fract_y
_atom_site_fract_z
Zn11	Zn1	0.259080	0.518160	0.750000
Zn21	Zn2	0.259080	0.740920	0.750000
Zn31	Zn3	0.481840	0.740920	0.750000
Zn41	Zn4	0.740920	0.481840	0.250000
Zn51	Zn5	0.740920	0.259080	0.250000
Zn61	Zn6	0.518160	0.259080	0.250000
H11	H1	0.692000	0.453900	0.478000
H21	H2	0.766400	0.481600	0.602400
H31	H3	0.710600	0.541100	0.711500
H41	H4	0.577600	0.564300	0.695000
H51	H5	0.761900	0.308000	0.478000
H61	H6	0.715200	0.233600	0.602400
H71	H7	0.830500	0.289400	0.711500
H81	H8	0.986700	0.422400	0.695000
H91	H9	0.546100	0.238100	0.478000
H101	H10	0.518400	0.284800	0.602400
H111	H11	0.458900	0.169500	0.711500
H121	H12	0.435700	0.013300	0.695000
H131	H13	0.761900	0.453900	0.022000
H141	H14	0.715200	0.481600	0.897600
H151	H15	0.830500	0.541100	0.788500
H161	H16	0.986700	0.564300	0.805000
H171	H17	0.546100	0.308000	0.022000
H181	H18	0.518400	0.233600	0.897600
H191	H19	0.458900	0.289400	0.788500
H201	H20	0.435700	0.422400	0.805000
H211	H21	0.692000	0.238100	0.022000
H221	H22	0.766400	0.284800	0.897600
H231	H23	0.710600	0.169500	0.788500
H241	H24	0.577600	0.013300	0.805000
H251	H25	0.308000	0.546100	0.522000
H261	H26	0.233600	0.518400	0.397600
H271	H27	0.289400	0.458900	0.288500
H281	H28	0.422400	0.435700	0.305000
H291	H29	0.238100	0.692000	0.522000
H301	H30	0.284800	0.766400	0.397600
H311	H31	0.169500	0.710600	0.288500
H321	H32	0.013300	0.577600	0.305000
H331	H33	0.453900	0.761900	0.522000
H341	H34	0.481600	0.715200	0.397600
H351	H35	0.541100	0.830500	0.288500
H361	H36	0.564300	0.986700	0.305000
H371	H37	0.238100	0.546100	0.978000
H381	H38	0.284800	0.518400	0.102400
H391	H39	0.169500	0.458900	0.211500
H401	H40	0.013300	0.435700	0.195000
H411	H41	0.453900	0.692000	0.978000
H421	H42	0.481600	0.766400	0.102400
H431	H43	0.541100	0.710600	0.211500
H441	H44	0.564300	0.577600	0.195000
H451	H45	0.308000	0.761900	0.978000
H461	H46	0.233600	0.715200	0.102400
H471	H47	0.289400	0.830500	0.211500
H481	H48	0.422400	0.986700	0.195000
C11	C1	0.433500	0.572700	0.634620
C21	C2	0.466900	0.534800	0.564690
C31	C3	0.549100	0.521700	0.575470
C41	C4	0.582400	0.485900	0.509440
C51	C5	0.667000	0.474500	0.521830
C61	C6	0.712000	0.492300	0.594800
C71	C7	0.677900	0.527400	0.660700
C81	C8	0.599500	0.541200	0.650700
C91	C9	0.139200	0.566500	0.634620
C101	C10	0.067900	0.533100	0.564690
C111	C11	0.972600	0.450900	0.575470
C121	C12	0.903500	0.417600	0.509440
C131	C13	0.807500	0.333000	0.521830
C141	C14	0.780300	0.288000	0.594800
C151	C15	0.849500	0.322100	0.660700
C161	C16	0.941700	0.400500	0.650700
C171	C17	0.427300	0.860800	0.634620
C181	C18	0.465200	0.932100	0.564690
C191	C19	0.478300	0.027400	0.575470
C201	C20	0.514100	0.096500	0.509440
C211	C21	0.525500	0.192500	0.521830
C221	C22	0.507700	0.219700	0.594800
C231	C23	0.472600	0.150500	0.660700
C241	C24	0.458800	0.058300	0.650700
C251	C25	0.139200	0.572700	0.865380
C261	C26	0.067900	0.534800	0.935310
C271	C27	0.972600	0.521700	0.924530
C281	C28	0.903500	0.485900	0.990560
C291	C29	0.807500	0.474500	0.978170
C301	C30	0.780300	0.492300	0.905200
C311	C31	0.849500	0.527400	0.839300
C321	C32	0.941700	0.541200	0.849300
C331	C33	0.427300	0.566500	0.865380
C341	C34	0.465200	0.533100	0.935310
C351	C35	0.478300	0.450900	0.924530
C361	C36	0.514100	0.417600	0.990560
C371	C37	0.525500	0.333000	0.978170
C381	C38	0.507700	0.288000	0.905200
C391	C39	0.472600	0.322100	0.839300
C401	C40	0.458800	0.400500	0.849300
C411	C41	0.433500	0.860800	0.865380
C421	C42	0.466900	0.932100	0.935310
C431	C43	0.549100	0.027400	0.924530
C441	C44	0.582400	0.096500	0.990560
C451	C45	0.667000	0.192500	0.978170
C461	C46	0.712000	0.219700	0.905200
C471	C47	0.677900	0.150500	0.839300
C481	C48	0.599500	0.058300	0.849300
C491	C49	0.566500	0.427300	0.365380
C501	C50	0.533100	0.465200	0.435310
C511	C51	0.450900	0.478300	0.424530
C521	C52	0.417600	0.514100	0.490560
C531	C53	0.333000	0.525500	0.478170
C541	C54	0.288000	0.507700	0.405200
C551	C55	0.322100	0.472600	0.339300
C561	C56	0.400500	0.458800	0.349300
C571	C57	0.860800	0.433500	0.365380
C581	C58	0.932100	0.466900	0.435310
C591	C59	0.027400	0.549100	0.424530
C601	C60	0.096500	0.582400	0.490560
C611	C61	0.192500	0.667000	0.478170
C621	C62	0.219700	0.712000	0.405200
C631	C63	0.150500	0.677900	0.339300
C641	C64	0.058300	0.599500	0.349300
C651	C65	0.572700	0.139200	0.365380
C661	C66	0.534800	0.067900	0.435310
C671	C67	0.521700	0.972600	0.424530
C681	C68	0.485900	0.903500	0.490560
C691	C69	0.474500	0.807500	0.478170
C701	C70	0.492300	0.780300	0.405200
C711	C71	0.527400	0.849500	0.339300
C721	C72	0.541200	0.941700	0.349300
C731	C73	0.860800	0.427300	0.134620
C741	C74	0.932100	0.465200	0.064690
C751	C75	0.027400	0.478300	0.075470
C761	C76	0.096500	0.514100	0.009440
C771	C77	0.192500	0.525500	0.021830
C781	C78	0.219700	0.507700	0.094800
C791	C79	0.150500	0.472600	0.160700
C801	C80	0.058300	0.458800	0.150700
C811	C81	0.572700	0.433500	0.134620
C821	C82	0.534800	0.466900	0.064690
C831	C83	0.521700	0.549100	0.075470
C841	C84	0.485900	0.582400	0.009440
C851	C85	0.474500	0.667000	0.021830
C861	C86	0.492300	0.712000	0.094800
C871	C87	0.527400	0.677900	0.160700
C881	C88	0.541200	0.599500	0.150700
C891	C89	0.566500	0.139200	0.134620
C901	C90	0.533100	0.067900	0.064690
C911	C91	0.450900	0.972600	0.075470
C921	C92	0.417600	0.903500	0.009440
C931	C93	0.333000	0.807500	0.021830
C941	C94	0.288000	0.780300	0.094800
C951	C95	0.322100	0.849500	0.160700
C961	C96	0.400500	0.941700	0.150700
O11	O1	0.360170	0.507690	0.674650
O21	O2	0.481350	0.664420	0.647340
O31	O3	0.147520	0.639830	0.674650
O41	O4	0.183070	0.518650	0.647340
O51	O5	0.492310	0.852480	0.674650
O61	O6	0.335580	0.816930	0.647340
O71	O7	0.147520	0.507690	0.825350
O81	O8	0.183070	0.664420	0.852660
O91	O9	0.492310	0.639830	0.825350
O101	O10	0.335580	0.518650	0.852660
O111	O11	0.360170	0.852480	0.825350
O121	O12	0.481350	0.816930	0.852660
O131	O13	0.639830	0.492310	0.325350
O141	O14	0.518650	0.335580	0.352660
O151	O15	0.852480	0.360170	0.325350
O161	O16	0.816930	0.481350	0.352660
O171	O17	0.507690	0.147520	0.325350
O181	O18	0.664420	0.183070	0.352660
O191	O19	0.852480	0.492310	0.174650
O201	O20	0.816930	0.335580	0.147340
O211	O21	0.507690	0.360170	0.174650
O221	O22	0.664420	0.481350	0.147340
O231	O23	0.639830	0.147520	0.174650
O241	O24	0.518650	0.183070	0.147340
O251	O25	0.333330	0.666660	0.750000
O261	O26	0.666670	0.333340	0.250000
