data_YARKAF_clean_PM
_symmetry_space_group_name_H-M	'P1'
_cell_length_a	13.860600
_cell_length_b	16.914200
_cell_length_c	18.158800
_cell_angle_alpha	112.895000
_cell_angle_beta	96.840000
_cell_angle_gamma	101.840000
_symmetry_Int_Tables_number 1

loop_
_symmetry_equiv_pos_as_xyz
'x,y,z'

loop_
_atom_site_label
_atom_site_type_symbol
_atom_site_fract_x
_atom_site_fract_y
_atom_site_fract_z
Zn11	Zn1	0.161130	0.346620	0.851790
Zn21	Zn2	0.821460	0.149010	0.153180
Zn31	Zn3	0.141190	0.927690	0.598500
Zn41	Zn4	0.149960	0.413670	0.603650
Zn51	Zn5	0.838870	0.653380	0.148210
Zn61	Zn6	0.178540	0.850990	0.846820
Zn71	Zn7	0.858810	0.072310	0.401500
Zn81	Zn8	0.850040	0.586330	0.396350
H11	H1	0.819100	0.385500	0.844900
H21	H2	0.637500	0.327900	0.632200
H31	H3	0.774500	0.331500	0.571500
H41	H4	0.463200	0.374300	0.795100
H51	H5	0.610900	0.192400	0.698500
H61	H6	0.461600	0.081300	0.654500
H71	H7	0.514500	0.144300	0.206400
H81	H8	0.371200	0.334800	0.255300
H91	H9	0.524300	0.441600	0.300000
H101	H10	0.152100	0.121900	0.147200
H111	H11	0.363700	0.197900	0.350000
H121	H12	0.238600	0.177800	0.419800
H131	H13	0.208500	0.242500	0.948300
H141	H14	0.197700	0.239700	0.071500
H151	H15	0.040300	0.417800	0.111600
H161	H16	0.055200	0.418300	0.987400
H171	H17	0.267400	0.417800	0.483800
H181	H18	0.257000	0.416500	0.355900
H191	H19	0.970600	0.397600	0.337900
H201	H20	0.985300	0.399600	0.465500
H211	H21	0.161200	0.306200	0.205300
H221	H22	0.044000	0.286300	0.180100
H231	H23	0.172500	0.457200	0.257200
H241	H24	0.054100	0.432200	0.239000
H251	H25	0.214200	0.501400	0.812400
H261	H26	0.323600	0.640100	0.861100
H271	H27	0.425100	0.611600	0.060500
H281	H28	0.321000	0.470100	0.001800
H291	H29	0.775700	0.996700	0.196500
H301	H30	0.670700	0.855800	0.149500
H311	H31	0.555800	0.885200	0.951800
H321	H32	0.653900	0.028300	0.011100
H331	H33	0.439700	0.772700	0.068300
H341	H34	0.415400	0.782000	0.985000
H351	H35	0.571000	0.715100	0.027400
H361	H36	0.546700	0.724400	0.944200
H371	H37	0.784100	0.255300	0.059900
H381	H38	0.796900	0.261000	0.938400
H391	H39	0.946300	0.075200	0.893900
H401	H40	0.922600	0.070100	0.015700
H411	H41	0.721500	0.057100	0.505600
H421	H42	0.718900	0.059500	0.632300
H431	H43	0.018300	0.111000	0.679800
H441	H44	0.015500	0.109000	0.553400
H451	H45	0.829600	0.192900	0.802900
H461	H46	0.946100	0.205500	0.824700
H471	H47	0.805200	0.040100	0.749800
H481	H48	0.922800	0.056700	0.765800
H491	H49	0.180900	0.614500	0.155100
H501	H50	0.362500	0.672100	0.367800
H511	H51	0.225500	0.668500	0.428500
H521	H52	0.536800	0.625700	0.204900
H531	H53	0.389100	0.807600	0.301500
H541	H54	0.538400	0.918700	0.345500
H551	H55	0.485500	0.855700	0.793600
H561	H56	0.628800	0.665200	0.744700
H571	H57	0.475700	0.558400	0.700000
H581	H58	0.847900	0.878100	0.852800
H591	H59	0.636300	0.802100	0.650000
H601	H60	0.761400	0.822200	0.580200
H611	H61	0.791500	0.757500	0.051700
H621	H62	0.802300	0.760300	0.928500
H631	H63	0.959700	0.582200	0.888400
H641	H64	0.944800	0.581700	0.012600
H651	H65	0.732600	0.582200	0.516200
H661	H66	0.743000	0.583500	0.644100
H671	H67	0.029400	0.602400	0.662100
H681	H68	0.014700	0.600400	0.534500
H691	H69	0.838800	0.693800	0.794700
H701	H70	0.956000	0.713700	0.819900
H711	H71	0.827500	0.542800	0.742800
H721	H72	0.945900	0.567800	0.761000
H731	H73	0.785800	0.498600	0.187600
H741	H74	0.676400	0.359900	0.138900
H751	H75	0.574900	0.388400	0.939500
H761	H76	0.679000	0.529900	0.998200
H771	H77	0.224300	0.003300	0.803500
H781	H78	0.329300	0.144200	0.850500
H791	H79	0.444200	0.114800	0.048200
H801	H80	0.346100	0.971700	0.988900
H811	H81	0.560300	0.227300	0.931700
H821	H82	0.584600	0.218000	0.015000
H831	H83	0.429000	0.284900	0.972600
H841	H84	0.453300	0.275600	0.055800
H851	H85	0.215900	0.744700	0.940100
H861	H86	0.203100	0.739000	0.061600
H871	H87	0.053700	0.924800	0.106100
H881	H88	0.077400	0.929900	0.984300
H891	H89	0.278500	0.942900	0.494400
H901	H90	0.281100	0.940500	0.367700
H911	H91	0.981700	0.889000	0.320200
H921	H92	0.984500	0.891000	0.446600
H931	H93	0.170400	0.807100	0.197100
H941	H94	0.053900	0.794500	0.175300
H951	H95	0.194800	0.959900	0.250200
H961	H96	0.077200	0.943300	0.234200
C11	C1	0.881800	0.357100	0.670300
C21	C2	0.894300	0.373200	0.752800
C31	C3	0.810800	0.373900	0.789700
C41	C4	0.717200	0.357400	0.743700
C51	C5	0.702100	0.340200	0.662500
C61	C6	0.784100	0.341400	0.626300
C71	C7	0.967600	0.364700	0.629300
C81	C8	0.993700	0.386200	0.805600
C91	C9	0.370900	0.160500	0.700200
C101	C10	0.373300	0.248100	0.741400
C111	C11	0.462900	0.315100	0.767100
C121	C12	0.551200	0.294400	0.751600
C131	C13	0.551200	0.206600	0.709300
C141	C14	0.462000	0.140400	0.683500
C151	C15	0.273600	0.087600	0.668500
C161	C16	0.281700	0.277700	0.765200
C171	C17	0.613600	0.357500	0.281100
C181	C18	0.609400	0.269200	0.253100
C191	C19	0.516500	0.204300	0.225600
C201	C20	0.428800	0.229000	0.227000
C211	C21	0.431100	0.318000	0.254700
C221	C22	0.522700	0.381700	0.281400
C231	C23	0.711300	0.428300	0.319100
C241	C24	0.701300	0.234000	0.243100
C251	C25	0.117500	0.141700	0.327500
C261	C26	0.092900	0.126200	0.245200
C271	C27	0.169100	0.134300	0.202400
C281	C28	0.269300	0.160500	0.241900
C291	C29	0.295900	0.178600	0.323300
C301	C30	0.220500	0.167600	0.365200
C311	C31	0.039600	0.124700	0.373400
C321	C32	0.988200	0.107400	0.198200
C331	C33	0.174700	0.278900	0.981800
C341	C34	0.168000	0.276800	0.055600
C351	C35	0.117400	0.329100	0.106600
C361	C36	0.075500	0.381700	0.079400
C371	C37	0.084700	0.381800	0.004400
C381	C38	0.205300	0.414800	0.455400
C391	C39	0.199400	0.413900	0.377400
C401	C40	0.114300	0.409400	0.334600
C411	C41	0.033400	0.402900	0.367000
C421	C42	0.043200	0.404200	0.444500
C431	C43	0.107800	0.328300	0.187800
C441	C44	0.112300	0.413100	0.252800
C451	C45	0.259600	0.523200	0.862300
C461	C46	0.324800	0.607600	0.892200
C471	C47	0.388800	0.643400	0.964000
C481	C48	0.384600	0.589500	0.008300
C491	C49	0.320700	0.505400	0.973200
C501	C50	0.727200	0.974600	0.148100
C511	C51	0.665600	0.888800	0.119200
C521	C52	0.598800	0.853100	0.048000
C531	C53	0.597400	0.907900	0.003600
C541	C54	0.657400	0.992400	0.038700
C551	C55	0.443400	0.748800	0.011000
C561	C56	0.543200	0.748400	0.001500
C571	C57	0.815700	0.217300	0.025400
C581	C58	0.823700	0.221500	0.952800
C591	C59	0.871800	0.166600	0.900200
C601	C60	0.911000	0.111300	0.925800
C611	C61	0.897700	0.109500	0.000100
C621	C62	0.781700	0.066700	0.540600
C631	C63	0.780200	0.068300	0.616600
C641	C64	0.867600	0.082700	0.669800
C651	C65	0.956900	0.098900	0.645000
C661	C66	0.954600	0.097000	0.568900
C671	C67	0.880300	0.167100	0.818600
C681	C68	0.868200	0.080300	0.753000
C691	C69	0.118200	0.642900	0.329700
C701	C70	0.105700	0.626800	0.247200
C711	C71	0.189200	0.626100	0.210300
C721	C72	0.282800	0.642600	0.256300
C731	C73	0.297900	0.659800	0.337500
C741	C74	0.215900	0.658600	0.373700
C751	C75	0.032400	0.635300	0.370700
C761	C76	0.006300	0.613800	0.194400
C771	C77	0.629100	0.839500	0.299800
C781	C78	0.626700	0.751900	0.258600
C791	C79	0.537100	0.684900	0.232900
C801	C80	0.448800	0.705600	0.248400
C811	C81	0.448800	0.793400	0.290700
C821	C82	0.538000	0.859600	0.316500
C831	C83	0.726400	0.912400	0.331500
C841	C84	0.718300	0.722300	0.234800
C851	C85	0.386400	0.642500	0.718900
C861	C86	0.390600	0.730800	0.746900
C871	C87	0.483500	0.795700	0.774400
C881	C88	0.571200	0.771000	0.773000
C891	C89	0.568900	0.682000	0.745300
C901	C90	0.477300	0.618300	0.718600
C911	C91	0.288700	0.571700	0.680900
C921	C92	0.298700	0.766000	0.756900
C931	C93	0.882500	0.858300	0.672500
C941	C94	0.907100	0.873800	0.754800
C951	C95	0.830900	0.865700	0.797600
C961	C96	0.730700	0.839500	0.758100
C971	C97	0.704100	0.821400	0.676700
C981	C98	0.779500	0.832400	0.634800
C991	C99	0.960400	0.875300	0.626600
C1001	C100	0.011800	0.892600	0.801800
C1011	C101	0.825300	0.721100	0.018200
C1021	C102	0.832000	0.723200	0.944400
C1031	C103	0.882600	0.670900	0.893400
C1041	C104	0.924500	0.618300	0.920600
C1051	C105	0.915300	0.618200	0.995600
C1061	C106	0.794700	0.585200	0.544600
C1071	C107	0.800600	0.586100	0.622600
C1081	C108	0.885700	0.590600	0.665400
C1091	C109	0.966600	0.597100	0.633000
C1101	C110	0.956800	0.595800	0.555500
C1111	C111	0.892200	0.671700	0.812200
C1121	C112	0.887700	0.586900	0.747200
C1131	C113	0.740400	0.476800	0.137700
C1141	C114	0.675200	0.392400	0.107800
C1151	C115	0.611200	0.356600	0.036000
C1161	C116	0.615400	0.410500	0.991700
C1171	C117	0.679300	0.494600	0.026800
C1181	C118	0.272800	0.025400	0.851900
C1191	C119	0.334400	0.111200	0.880800
C1201	C120	0.401200	0.146900	0.952000
C1211	C121	0.402600	0.092100	0.996400
C1221	C122	0.342600	0.007600	0.961300
C1231	C123	0.556600	0.251200	0.989000
C1241	C124	0.456800	0.251600	0.998500
C1251	C125	0.184300	0.782700	0.974600
C1261	C126	0.176300	0.778500	0.047200
C1271	C127	0.128200	0.833400	0.099800
C1281	C128	0.089000	0.888700	0.074200
C1291	C129	0.102300	0.890500	0.999900
C1301	C130	0.218300	0.933300	0.459400
C1311	C131	0.219800	0.931700	0.383400
C1321	C132	0.132400	0.917300	0.330200
C1331	C133	0.043100	0.901100	0.355000
C1341	C134	0.045400	0.903000	0.431100
C1351	C135	0.119700	0.832900	0.181400
C1361	C136	0.131800	0.919700	0.247000
N11	N1	0.133700	0.332200	0.956000
N21	N2	0.128600	0.411500	0.490400
N31	N3	0.258900	0.471800	0.901600
N41	N4	0.721100	0.026500	0.110900
N51	N5	0.850800	0.161700	0.049400
N61	N6	0.869500	0.078800	0.516100
N71	N7	0.866300	0.667800	0.044000
N81	N8	0.871400	0.588500	0.509600
N91	N9	0.741100	0.528200	0.098400
N101	N10	0.278900	0.973500	0.889100
N111	N11	0.149200	0.838300	0.950600
N121	N12	0.130500	0.921200	0.483900
O11	O1	0.051600	0.419900	0.673400
O21	O2	0.955300	0.321300	0.555100
O31	O3	0.034700	0.323500	0.779500
O41	O4	0.026100	0.452600	0.871000
O51	O5	0.278700	0.008400	0.656200
O61	O6	0.193200	0.104100	0.655300
O71	O7	0.242000	0.317800	0.731100
O81	O8	0.255300	0.269100	0.826600
O91	O9	0.638200	0.364000	0.784200
O101	O10	0.710800	0.509000	0.341000
O111	O11	0.790900	0.408200	0.330200
O121	O12	0.736400	0.231300	0.181900
O131	O13	0.728000	0.198600	0.287100
O141	O14	0.954000	0.071200	0.330600
O151	O15	0.058600	0.160000	0.448200
O161	O16	0.944900	0.169200	0.226500
O171	O17	0.953700	0.039600	0.134400
O181	O18	0.338100	0.162800	0.193300
O191	O19	0.948400	0.580100	0.326600
O201	O20	0.044700	0.678700	0.444900
O211	O21	0.965300	0.676500	0.220500
O221	O22	0.973900	0.547400	0.129000
O231	O23	0.721300	0.991600	0.343800
O241	O24	0.806800	0.895900	0.344700
O251	O25	0.758000	0.682200	0.268900
O261	O26	0.744700	0.730900	0.173400
O271	O27	0.361800	0.636000	0.215800
O281	O28	0.289200	0.491000	0.659000
O291	O29	0.209100	0.591800	0.669800
O301	O30	0.263600	0.768700	0.818100
O311	O31	0.272000	0.801400	0.712900
O321	O32	0.046000	0.928800	0.669400
O331	O33	0.941400	0.840000	0.551800
O341	O34	0.055100	0.830800	0.773500
O351	O35	0.046300	0.960400	0.865600
O361	O36	0.661900	0.837200	0.806700
