data_YARKOT_clean_PM
_symmetry_space_group_name_H-M	'P1'
_cell_length_a	9.574100
_cell_length_b	11.440300
_cell_length_c	25.674000
_cell_angle_alpha	90.000000
_cell_angle_beta	90.000000
_cell_angle_gamma	90.000000
_symmetry_Int_Tables_number 1

loop_
_symmetry_equiv_pos_as_xyz
'x,y,z'

loop_
_atom_site_label
_atom_site_type_symbol
_atom_site_fract_x
_atom_site_fract_y
_atom_site_fract_z
O11	O1	0.797400	0.912900	0.056000
C11	C1	0.940400	0.800000	0.108800
C21	C2	0.867400	0.833100	0.152600
H11	H1	0.800900	0.892000	0.149600
O21	O2	0.006900	0.863000	0.024300
C31	C3	0.888500	0.783100	0.200200
H21	H2	0.839700	0.809100	0.229300
O31	O3	0.069000	0.594200	0.037810
O41	O4	0.253200	0.690500	0.068300
C41	C4	0.984200	0.693000	0.204200
C51	C5	0.058900	0.654800	0.161400
H31	H3	0.121000	0.592700	0.164300
C61	C6	0.039000	0.712200	0.113100
C71	C7	0.914700	0.863500	0.058600
C81	C8	0.128200	0.665600	0.069300
O51	O5	0.297400	0.412900	0.056000
C91	C9	0.440400	0.300000	0.108800
C101	C10	0.367400	0.333100	0.152600
H41	H4	0.300900	0.392000	0.149600
O61	O6	0.506900	0.363000	0.024300
C111	C11	0.388500	0.283100	0.200200
H51	H5	0.339700	0.309100	0.229300
O71	O7	0.569000	0.094200	0.037810
O81	O8	0.753200	0.190500	0.068300
C121	C12	0.484200	0.193000	0.204200
C131	C13	0.558900	0.154800	0.161400
H61	H6	0.621000	0.092700	0.164300
C141	C14	0.539000	0.212200	0.113100
C151	C15	0.414700	0.363500	0.058600
C161	C16	0.628200	0.165600	0.069300
O91	O9	0.202600	0.087100	0.556000
C171	C17	0.059600	0.200000	0.608800
C181	C18	0.132600	0.166900	0.652600
H71	H7	0.199100	0.108000	0.649600
O101	O10	0.993100	0.137000	0.524300
C191	C19	0.111500	0.216900	0.700200
H81	H8	0.160300	0.190900	0.729300
O111	O11	0.931000	0.405800	0.537810
O121	O12	0.746800	0.309500	0.568300
C201	C20	0.015800	0.307000	0.704200
C211	C21	0.941100	0.345200	0.661400
H91	H9	0.879000	0.407300	0.664300
C221	C22	0.961000	0.287800	0.613100
C231	C23	0.085300	0.136500	0.558600
C241	C24	0.871800	0.334400	0.569300
O131	O13	0.702600	0.587100	0.556000
C251	C25	0.559600	0.700000	0.608800
C261	C26	0.632600	0.666900	0.652600
H101	H10	0.699100	0.608000	0.649600
O141	O14	0.493100	0.637000	0.524300
C271	C27	0.611500	0.716900	0.700200
H111	H11	0.660300	0.690900	0.729300
O151	O15	0.431000	0.905800	0.537810
O161	O16	0.246800	0.809500	0.568300
C281	C28	0.515800	0.807000	0.704200
C291	C29	0.441100	0.845200	0.661400
H121	H12	0.379000	0.907300	0.664300
C301	C30	0.461000	0.787800	0.613100
C311	C31	0.585300	0.636500	0.558600
C321	C32	0.371800	0.834400	0.569300
O171	O17	0.202600	0.912900	0.444000
C331	C33	0.059600	0.800000	0.391200
C341	C34	0.132600	0.833100	0.347400
H131	H13	0.199100	0.892000	0.350400
O181	O18	0.993100	0.863000	0.475700
C351	C35	0.111500	0.783100	0.299800
H141	H14	0.160300	0.809100	0.270700
O191	O19	0.931000	0.594200	0.462190
O201	O20	0.746800	0.690500	0.431700
C361	C36	0.015800	0.693000	0.295800
C371	C37	0.941100	0.654800	0.338600
H151	H15	0.879000	0.592700	0.335700
C381	C38	0.961000	0.712200	0.386900
C391	C39	0.085300	0.863500	0.441400
C401	C40	0.871800	0.665600	0.430700
O211	O21	0.702600	0.412900	0.444000
C411	C41	0.559600	0.300000	0.391200
C421	C42	0.632600	0.333100	0.347400
H161	H16	0.699100	0.392000	0.350400
O221	O22	0.493100	0.363000	0.475700
C431	C43	0.611500	0.283100	0.299800
H171	H17	0.660300	0.309100	0.270700
O231	O23	0.431000	0.094200	0.462190
O241	O24	0.246800	0.190500	0.431700
C441	C44	0.515800	0.193000	0.295800
C451	C45	0.441100	0.154800	0.338600
H181	H18	0.379000	0.092700	0.335700
C461	C46	0.461000	0.212200	0.386900
C471	C47	0.585300	0.363500	0.441400
C481	C48	0.371800	0.165600	0.430700
O251	O25	0.797400	0.087100	0.944000
C491	C49	0.940400	0.200000	0.891200
C501	C50	0.867400	0.166900	0.847400
H191	H19	0.800900	0.108000	0.850400
O261	O26	0.006900	0.137000	0.975700
C511	C51	0.888500	0.216900	0.799800
H201	H20	0.839700	0.190900	0.770700
O271	O27	0.069000	0.405800	0.962190
O281	O28	0.253200	0.309500	0.931700
C521	C52	0.984200	0.307000	0.795800
C531	C53	0.058900	0.345200	0.838600
H211	H21	0.121000	0.407300	0.835700
C541	C54	0.039000	0.287800	0.886900
C551	C55	0.914700	0.136500	0.941400
C561	C56	0.128200	0.334400	0.930700
O291	O29	0.297400	0.587100	0.944000
C571	C57	0.440400	0.700000	0.891200
C581	C58	0.367400	0.666900	0.847400
H221	H22	0.300900	0.608000	0.850400
O301	O30	0.506900	0.637000	0.975700
C591	C59	0.388500	0.716900	0.799800
H231	H23	0.339700	0.690900	0.770700
O311	O31	0.569000	0.905800	0.962190
O321	O32	0.753200	0.809500	0.931700
C601	C60	0.484200	0.807000	0.795800
C611	C61	0.558900	0.845200	0.838600
H241	H24	0.621000	0.907300	0.835700
C621	C62	0.539000	0.787800	0.886900
C631	C63	0.414700	0.636500	0.941400
C641	C64	0.628200	0.834400	0.930700
Zn11	Zn1	0.713140	0.000000	0.000000
Zn21	Zn2	0.213140	0.500000	0.000000
Zn31	Zn3	0.286860	0.000000	0.500000
Zn41	Zn4	0.786860	0.500000	0.500000
O331	O33	0.000000	0.626800	0.250000
O341	O34	0.500000	0.126800	0.250000
O351	O35	0.000000	0.373200	0.750000
O361	O36	0.500000	0.873200	0.750000
