data_YARSAN_clean_PM
_symmetry_space_group_name_H-M	'P1'
_cell_length_a	10.302000
_cell_length_b	11.876000
_cell_length_c	32.266000
_cell_angle_alpha	90.000000
_cell_angle_beta	90.000000
_cell_angle_gamma	90.000000
_symmetry_Int_Tables_number 1

loop_
_symmetry_equiv_pos_as_xyz
'x,y,z'

loop_
_atom_site_label
_atom_site_type_symbol
_atom_site_fract_x
_atom_site_fract_y
_atom_site_fract_z
Zn11	Zn1	0.614750	0.832430	0.043710
Zn21	Zn2	0.876360	0.044930	0.647480
Zn31	Zn3	0.885250	0.167570	0.543710
Zn41	Zn4	0.623640	0.955070	0.147480
H11	H1	0.235700	0.918600	0.043000
H21	H2	0.012800	0.919200	0.038800
H31	H3	0.878200	0.804700	0.170900
H41	H4	0.981100	0.744400	0.229400
H51	H5	0.205500	0.726500	0.230500
H61	H6	0.325300	0.780500	0.174700
H71	H7	0.520800	0.234000	0.063500
H81	H8	0.498200	0.410900	0.034100
H91	H9	0.663600	0.655200	0.134800
H101	H10	0.742300	0.631500	0.200300
H111	H11	0.763300	0.453200	0.229100
H121	H12	0.704800	0.298000	0.191700
H131	H13	0.544200	0.064500	0.792800
H141	H14	0.458500	0.998800	0.854700
H151	H15	0.816200	0.956900	0.900000
H161	H16	0.902700	0.022000	0.838600
H171	H17	0.710200	0.985200	0.728000
H181	H18	0.985900	0.210900	0.716300
H191	H19	0.921000	0.211500	0.789100
H201	H20	0.735200	0.916200	0.958700
H211	H21	0.371800	0.841200	0.983200
H221	H22	0.379100	0.909500	0.912000
H231	H23	0.264300	0.081400	0.543000
H241	H24	0.487200	0.080800	0.538800
H251	H25	0.621800	0.195300	0.670900
H261	H26	0.518900	0.255600	0.729400
H271	H27	0.294500	0.273500	0.730500
H281	H28	0.174700	0.219500	0.674700
H291	H29	0.979200	0.766000	0.563500
H301	H30	0.001800	0.589100	0.534100
H311	H31	0.836400	0.344800	0.634800
H321	H32	0.757700	0.368500	0.700300
H331	H33	0.736700	0.546800	0.729100
H341	H34	0.795200	0.702000	0.691700
H351	H35	0.955800	0.935500	0.292800
H361	H36	0.041500	0.001200	0.354700
H371	H37	0.683800	0.043100	0.400000
H381	H38	0.597300	0.978000	0.338600
H391	H39	0.789800	0.014800	0.228000
H401	H40	0.514100	0.789100	0.216300
H411	H41	0.579000	0.788500	0.289100
H421	H42	0.764800	0.083800	0.458700
H431	H43	0.128200	0.158800	0.483200
H441	H44	0.120900	0.090500	0.412000
C11	C1	0.251500	0.868300	0.101870
C21	C2	0.187400	0.898300	0.066150
C31	C3	0.052500	0.899200	0.063630
C41	C4	0.976500	0.870900	0.097260
C51	C5	0.037900	0.835700	0.135420
C61	C6	0.968400	0.801500	0.171190
C71	C7	0.029600	0.763900	0.206120
C81	C8	0.164300	0.754700	0.207040
C91	C9	0.235500	0.787200	0.173600
C101	C10	0.177200	0.831000	0.137090
C111	C11	0.397400	0.881200	0.102590
C121	C12	0.832800	0.875700	0.090760
C131	C13	0.597000	0.284000	0.117330
C141	C14	0.547100	0.297100	0.078290
C151	C15	0.534900	0.403900	0.060320
C161	C16	0.576600	0.498800	0.080970
C171	C17	0.631100	0.488300	0.121650
C181	C18	0.670400	0.583100	0.145790
C191	C19	0.717800	0.568700	0.184920
C201	C20	0.730300	0.461400	0.202450
C211	C21	0.693900	0.369200	0.180240
C221	C22	0.640200	0.379300	0.140240
C231	C23	0.596600	0.168400	0.136460
C241	C24	0.556100	0.610300	0.059770
C251	C25	0.731800	0.049600	0.809890
C261	C26	0.598900	0.042900	0.814330
C271	C27	0.548000	0.003400	0.851350
C281	C28	0.628300	0.971100	0.883210
C291	C29	0.761600	0.978400	0.878430
C301	C30	0.813200	0.017400	0.841820
C311	C31	0.770400	0.041300	0.733920
C321	C32	0.921900	0.165500	0.727950
C331	C33	0.886900	0.166700	0.768160
C341	C34	0.646000	0.906100	0.956070
C351	C35	0.445700	0.865200	0.969270
C361	C36	0.449300	0.902500	0.929920
C371	C37	0.248500	0.131700	0.601870
C381	C38	0.312600	0.101700	0.566150
C391	C39	0.447500	0.100800	0.563630
C401	C40	0.523500	0.129100	0.597260
C411	C41	0.462100	0.164300	0.635420
C421	C42	0.531600	0.198500	0.671190
C431	C43	0.470400	0.236100	0.706120
C441	C44	0.335700	0.245300	0.707040
C451	C45	0.264500	0.212800	0.673600
C461	C46	0.322800	0.169000	0.637090
C471	C47	0.102600	0.118800	0.602590
C481	C48	0.667200	0.124300	0.590760
C491	C49	0.903000	0.716000	0.617330
C501	C50	0.952900	0.702900	0.578290
C511	C51	0.965100	0.596100	0.560320
C521	C52	0.923400	0.501200	0.580970
C531	C53	0.868900	0.511700	0.621650
C541	C54	0.829600	0.416900	0.645790
C551	C55	0.782200	0.431300	0.684920
C561	C56	0.769700	0.538600	0.702450
C571	C57	0.806100	0.630800	0.680240
C581	C58	0.859800	0.620700	0.640240
C591	C59	0.903400	0.831600	0.636460
C601	C60	0.943900	0.389700	0.559770
C611	C61	0.768200	0.950400	0.309890
C621	C62	0.901100	0.957100	0.314330
C631	C63	0.952000	0.996600	0.351350
C641	C64	0.871700	0.028900	0.383210
C651	C65	0.738400	0.021600	0.378430
C661	C66	0.686800	0.982600	0.341820
C671	C67	0.729600	0.958700	0.233920
C681	C68	0.578100	0.834500	0.227950
C691	C69	0.613100	0.833300	0.268160
C701	C70	0.854000	0.093900	0.456070
C711	C71	0.054300	0.134800	0.469270
C721	C72	0.050700	0.097500	0.429920
N11	N1	0.789500	0.087110	0.771650
N21	N2	0.849700	0.087530	0.706530
N31	N3	0.577000	0.928300	0.921280
N41	N4	0.569900	0.868400	0.985620
N51	N5	0.710500	0.912890	0.271650
N61	N6	0.650300	0.912470	0.206530
N71	N7	0.923000	0.071700	0.421280
N81	N8	0.930100	0.131600	0.485620
O11	O1	0.454000	0.886810	0.136930
O21	O2	0.452980	0.892970	0.068120
O31	O3	0.756690	0.857840	0.121050
O41	O4	0.790530	0.895000	0.054640
O51	O5	0.658300	0.092360	0.116940
O61	O6	0.534300	0.149940	0.168210
O71	O7	0.452700	0.629650	0.042180
O81	O8	0.651460	0.679660	0.061740
O91	O9	0.046000	0.113190	0.636930
O101	O10	0.047020	0.107030	0.568120
O111	O11	0.743310	0.142160	0.621050
O121	O12	0.709470	0.105000	0.554640
O131	O13	0.841700	0.907640	0.616940
O141	O14	0.965700	0.850060	0.668210
O151	O15	0.047300	0.370350	0.542180
O161	O16	0.848540	0.320340	0.561740
Zn51	Zn5	0.385250	0.332430	0.456290
Zn61	Zn6	0.123640	0.544930	0.852520
Zn71	Zn7	0.114750	0.667570	0.956290
Zn81	Zn8	0.376360	0.455070	0.352520
H451	H45	0.764300	0.418600	0.457000
H461	H46	0.987200	0.419200	0.461200
H471	H47	0.121800	0.304700	0.329100
H481	H48	0.018900	0.244400	0.270600
H491	H49	0.794500	0.226500	0.269500
H501	H50	0.674700	0.280500	0.325300
H511	H51	0.479200	0.734000	0.436500
H521	H52	0.501800	0.910900	0.465900
H531	H53	0.336400	0.155200	0.365200
H541	H54	0.257700	0.131500	0.299700
H551	H55	0.236700	0.953200	0.270900
H561	H56	0.295200	0.798000	0.308300
H571	H57	0.455800	0.564500	0.707200
H581	H58	0.541500	0.498800	0.645300
H591	H59	0.183800	0.456900	0.600000
H601	H60	0.097300	0.522000	0.661400
H611	H61	0.289800	0.485200	0.772000
H621	H62	0.014100	0.710900	0.783700
H631	H63	0.079000	0.711500	0.710900
H641	H64	0.264800	0.416200	0.541300
H651	H65	0.628200	0.341200	0.516800
H661	H66	0.620900	0.409500	0.588000
H671	H67	0.735700	0.581400	0.957000
H681	H68	0.512800	0.580800	0.961200
H691	H69	0.378200	0.695300	0.829100
H701	H70	0.481100	0.755600	0.770600
H711	H71	0.705500	0.773500	0.769500
H721	H72	0.825300	0.719500	0.825300
H731	H73	0.020800	0.266000	0.936500
H741	H74	0.998200	0.089100	0.965900
H751	H75	0.163600	0.844800	0.865200
H761	H76	0.242300	0.868500	0.799700
H771	H77	0.263300	0.046800	0.770900
H781	H78	0.204800	0.202000	0.808300
H791	H79	0.044200	0.435500	0.207200
H801	H80	0.958500	0.501200	0.145300
H811	H81	0.316200	0.543100	0.100000
H821	H82	0.402700	0.478000	0.161400
H831	H83	0.210200	0.514800	0.272000
H841	H84	0.485900	0.289100	0.283700
H851	H85	0.421000	0.288500	0.210900
H861	H86	0.235200	0.583800	0.041300
H871	H87	0.871800	0.658800	0.016800
H881	H88	0.879100	0.590500	0.088000
C731	C73	0.748500	0.368300	0.398130
C741	C74	0.812600	0.398300	0.433850
C751	C75	0.947500	0.399200	0.436370
C761	C76	0.023500	0.370900	0.402740
C771	C77	0.962100	0.335700	0.364580
C781	C78	0.031600	0.301500	0.328810
C791	C79	0.970400	0.263900	0.293880
C801	C80	0.835700	0.254700	0.292960
C811	C81	0.764500	0.287200	0.326400
C821	C82	0.822800	0.331000	0.362910
C831	C83	0.602600	0.381200	0.397410
C841	C84	0.167200	0.375700	0.409240
C851	C85	0.403000	0.784000	0.382670
C861	C86	0.452900	0.797100	0.421710
C871	C87	0.465100	0.903900	0.439680
C881	C88	0.423400	0.998800	0.419030
C891	C89	0.368900	0.988300	0.378350
C901	C90	0.329600	0.083100	0.354210
C911	C91	0.282200	0.068700	0.315080
C921	C92	0.269700	0.961400	0.297550
C931	C93	0.306100	0.869200	0.319760
C941	C94	0.359800	0.879300	0.359760
C951	C95	0.403400	0.668400	0.363540
C961	C96	0.443900	0.110300	0.440230
C971	C97	0.268200	0.549600	0.690110
C981	C98	0.401100	0.542900	0.685670
C991	C99	0.452000	0.503400	0.648650
C1001	C100	0.371700	0.471100	0.616790
C1011	C101	0.238400	0.478400	0.621570
C1021	C102	0.186800	0.517400	0.658180
C1031	C103	0.229600	0.541300	0.766080
C1041	C104	0.078100	0.665500	0.772050
C1051	C105	0.113100	0.666700	0.731840
C1061	C106	0.354000	0.406100	0.543930
C1071	C107	0.554300	0.365200	0.530730
C1081	C108	0.550700	0.402500	0.570080
C1091	C109	0.751500	0.631700	0.898130
C1101	C110	0.687400	0.601700	0.933850
C1111	C111	0.552500	0.600800	0.936370
C1121	C112	0.476500	0.629100	0.902740
C1131	C113	0.537900	0.664300	0.864580
C1141	C114	0.468400	0.698500	0.828810
C1151	C115	0.529600	0.736100	0.793880
C1161	C116	0.664300	0.745300	0.792960
C1171	C117	0.735500	0.712800	0.826400
C1181	C118	0.677200	0.669000	0.862910
C1191	C119	0.897400	0.618800	0.897410
C1201	C120	0.332800	0.624300	0.909240
C1211	C121	0.097000	0.216000	0.882670
C1221	C122	0.047100	0.202900	0.921710
C1231	C123	0.034900	0.096100	0.939680
C1241	C124	0.076600	0.001200	0.919030
C1251	C125	0.131100	0.011700	0.878350
C1261	C126	0.170400	0.916900	0.854210
C1271	C127	0.217800	0.931300	0.815080
C1281	C128	0.230300	0.038600	0.797550
C1291	C129	0.193900	0.130800	0.819760
C1301	C130	0.140200	0.120700	0.859760
C1311	C131	0.096600	0.331600	0.863540
C1321	C132	0.056100	0.889700	0.940230
C1331	C133	0.231800	0.450400	0.190110
C1341	C134	0.098900	0.457100	0.185670
C1351	C135	0.048000	0.496600	0.148650
C1361	C136	0.128300	0.528900	0.116790
C1371	C137	0.261600	0.521600	0.121570
C1381	C138	0.313200	0.482600	0.158180
C1391	C139	0.270400	0.458700	0.266080
C1401	C140	0.421900	0.334500	0.272050
C1411	C141	0.386900	0.333300	0.231840
C1421	C142	0.146000	0.593900	0.043930
C1431	C143	0.945700	0.634800	0.030730
C1441	C144	0.949300	0.597500	0.070080
N91	N9	0.210500	0.587110	0.728350
N101	N10	0.150300	0.587530	0.793470
N111	N11	0.423000	0.428300	0.578720
N121	N12	0.430100	0.368400	0.514380
N131	N13	0.289500	0.412890	0.228350
N141	N14	0.349700	0.412470	0.293470
N151	N15	0.077000	0.571700	0.078720
N161	N16	0.069900	0.631600	0.014380
O171	O17	0.546000	0.386810	0.363070
O181	O18	0.547020	0.392970	0.431880
O191	O19	0.243310	0.357840	0.378950
O201	O20	0.209470	0.395000	0.445360
O211	O21	0.341700	0.592360	0.383060
O221	O22	0.465700	0.649940	0.331790
O231	O23	0.547300	0.129650	0.457820
O241	O24	0.348540	0.179660	0.438260
O251	O25	0.954000	0.613190	0.863070
O261	O26	0.952980	0.607030	0.931880
O271	O27	0.256690	0.642160	0.878950
O281	O28	0.290530	0.605000	0.945360
O291	O29	0.158300	0.407640	0.883060
O301	O30	0.034300	0.350060	0.831790
O311	O31	0.952700	0.870350	0.957820
O321	O32	0.151460	0.820340	0.938260
