data_YARVEV_clean_PM
_symmetry_space_group_name_H-M	'P1'
_cell_length_a	13.614700
_cell_length_b	17.839600
_cell_length_c	20.182000
_cell_angle_alpha	90.000000
_cell_angle_beta	94.425000
_cell_angle_gamma	90.000000
_symmetry_Int_Tables_number 1

loop_
_symmetry_equiv_pos_as_xyz
'x,y,z'

loop_
_atom_site_label
_atom_site_type_symbol
_atom_site_fract_x
_atom_site_fract_y
_atom_site_fract_z
C11	C1	0.588300	0.508700	0.661900
C21	C2	0.586300	0.471100	0.722100
H11	H1	0.631000	0.432400	0.731600
C31	C3	0.520700	0.489100	0.768000
H21	H2	0.522100	0.463200	0.808100
C41	C4	0.452900	0.545500	0.754900
C51	C5	0.448100	0.580200	0.693400
H31	H3	0.399300	0.615600	0.682600
C61	C6	0.516100	0.562500	0.647800
H41	H4	0.513100	0.587200	0.607200
C71	C7	0.677400	0.406900	0.557900
C81	C8	0.592300	0.365400	0.555300
H51	H5	0.545500	0.376000	0.585100
C91	C9	0.574000	0.308000	0.509500
H61	H6	0.515500	0.280900	0.509000
C101	C10	0.642400	0.291100	0.464700
C111	C11	0.728800	0.331300	0.468100
H71	H7	0.776900	0.319700	0.439400
C121	C12	0.745000	0.388200	0.513300
H81	H8	0.803500	0.415100	0.513800
C131	C13	0.707000	0.572400	0.552000
C141	C14	0.673600	0.568400	0.485600
H91	H9	0.639400	0.525900	0.470400
C151	C15	0.689200	0.625400	0.441200
H101	H10	0.665600	0.620500	0.397000
C161	C16	0.739600	0.689400	0.461900
C171	C17	0.770900	0.695300	0.528600
H111	H11	0.803600	0.738300	0.544200
C181	C18	0.753900	0.637800	0.572200
H121	H12	0.774900	0.643500	0.616900
C191	C19	0.802300	0.489900	0.674400
C201	C20	0.879900	0.440000	0.673600
H131	H13	0.882300	0.407000	0.638100
C211	C21	0.954700	0.437700	0.724700
H141	H14	0.006100	0.403700	0.722800
C221	C22	0.952800	0.485900	0.778500
C231	C23	0.876500	0.536800	0.779700
H151	H15	0.874800	0.570100	0.815100
C241	C24	0.802500	0.538600	0.728600
H161	H16	0.751700	0.573200	0.730400
C251	C25	0.024700	0.753400	0.344900
H171	H17	0.988600	0.754900	0.382200
C261	C26	0.057500	0.747000	0.245000
H181	H18	0.053100	0.743600	0.198900
C271	C27	0.241600	0.747600	0.266600
C281	C28	0.262900	0.719800	0.206300
H191	H19	0.212400	0.704800	0.175500
C291	C29	0.360200	0.714200	0.191500
H201	H20	0.375000	0.696100	0.150200
C301	C30	0.435700	0.735200	0.237600
C311	C31	0.412400	0.763200	0.297600
H211	H21	0.462700	0.778800	0.328400
C321	C32	0.316300	0.768800	0.313200
H221	H22	0.301600	0.786700	0.354600
C331	C33	0.538500	0.723400	0.222600
Cu11	Cu1	0.753580	0.081410	0.371550
Cu21	Cu2	0.836860	0.743870	0.255150
Cu31	Cu3	0.647200	0.857270	0.302680
N11	N1	0.982000	0.748200	0.281960
N21	N2	0.120300	0.756000	0.348500
N31	N3	0.141500	0.751500	0.283700
N41	N4	0.617500	0.758700	0.250230
N51	N5	0.695000	0.725000	0.225790
N61	N6	0.663300	0.672200	0.183800
N71	N7	0.565300	0.670600	0.181000
O11	O1	0.423700	0.583200	0.881910
O21	O2	0.304600	0.497300	0.819200
O31	O3	0.305200	0.633330	0.789020
O41	O4	0.518800	0.188150	0.410170
O51	O5	0.636600	0.250520	0.337840
O61	O6	0.700600	0.156610	0.427520
O71	O7	0.810500	0.717360	0.345740
O81	O8	0.674700	0.801800	0.383710
O91	O9	0.847200	0.807900	0.440910
H231	H23	0.861500	0.843200	0.417500
O101	O10	0.125200	0.430890	0.823480
O111	O11	0.086100	0.565840	0.854120
O121	O12	0.004900	0.460100	0.908330
P11	P1	0.367710	0.567550	0.815390
P21	P2	0.626580	0.217100	0.404840
P31	P3	0.767490	0.758210	0.402100
P41	P4	0.049010	0.486170	0.844800
Si11	Si1	0.693930	0.492930	0.610500
C341	C34	0.681600	0.978100	0.211200
C351	C35	0.570600	0.907600	0.165700
N81	N8	0.661400	0.010100	0.154200
C361	C36	0.552300	0.053300	0.036300
H241	H24	0.588300	0.089200	0.061300
C371	C37	0.543000	0.981900	0.061200
C381	C38	0.491100	0.928500	0.024800
H251	H25	0.485300	0.880300	0.041600
C391	C39	0.590400	0.964300	0.124500
N91	N9	0.628200	0.916100	0.219200
C401	C40	0.911700	0.008700	0.838100
C411	C41	0.913700	0.971100	0.777900
H261	H26	0.869000	0.932400	0.768400
C421	C42	0.979300	0.989100	0.732000
H271	H27	0.977900	0.963200	0.691900
C431	C43	0.047100	0.045500	0.745100
C441	C44	0.051900	0.080200	0.806600
H281	H28	0.100700	0.115600	0.817400
C451	C45	0.983900	0.062500	0.852200
H291	H29	0.986900	0.087200	0.892800
C461	C46	0.822600	0.906900	0.942100
C471	C47	0.907700	0.865400	0.944700
H301	H30	0.954500	0.876000	0.914900
C481	C48	0.926000	0.808000	0.990500
H311	H31	0.984500	0.780900	0.991000
C491	C49	0.857600	0.791100	0.035300
C501	C50	0.771200	0.831300	0.031900
H321	H32	0.723100	0.819700	0.060600
C511	C51	0.755000	0.888200	0.986700
H331	H33	0.696500	0.915100	0.986200
C521	C52	0.793000	0.072400	0.948000
C531	C53	0.826400	0.068400	0.014400
H341	H34	0.860600	0.025900	0.029600
C541	C54	0.810800	0.125400	0.058800
H351	H35	0.834400	0.120500	0.103000
C551	C55	0.760400	0.189400	0.038100
C561	C56	0.729100	0.195300	0.971400
H361	H36	0.696400	0.238300	0.955800
C571	C57	0.746100	0.137800	0.927800
H371	H37	0.725100	0.143500	0.883100
C581	C58	0.697700	0.989900	0.825600
C591	C59	0.620100	0.940000	0.826400
H381	H38	0.617700	0.907000	0.861900
C601	C60	0.545300	0.937700	0.775300
H391	H39	0.493900	0.903700	0.777200
C611	C61	0.547200	0.985900	0.721500
C621	C62	0.623500	0.036800	0.720300
H401	H40	0.625200	0.070100	0.684900
C631	C63	0.697500	0.038600	0.771400
H411	H41	0.748300	0.073200	0.769600
C641	C64	0.475300	0.253400	0.155100
H421	H42	0.511400	0.254900	0.117800
C651	C65	0.442500	0.247000	0.255000
H431	H43	0.446900	0.243600	0.301100
C661	C66	0.258400	0.247600	0.233400
C671	C67	0.237100	0.219800	0.293700
H441	H44	0.287600	0.204800	0.324500
C681	C68	0.139800	0.214200	0.308500
H451	H45	0.125000	0.196100	0.349800
C691	C69	0.064300	0.235200	0.262400
C701	C70	0.087600	0.263200	0.202400
H461	H46	0.037300	0.278800	0.171600
C711	C71	0.183700	0.268800	0.186800
H471	H47	0.198400	0.286700	0.145400
C721	C72	0.961500	0.223400	0.277400
Cu41	Cu4	0.746420	0.581410	0.128450
Cu51	Cu5	0.663140	0.243870	0.244850
Cu61	Cu6	0.852800	0.357270	0.197320
N101	N10	0.518000	0.248200	0.218040
N111	N11	0.379700	0.256000	0.151500
N121	N12	0.358500	0.251500	0.216300
N131	N13	0.882500	0.258700	0.249770
N141	N14	0.805000	0.225000	0.274210
N151	N15	0.836700	0.172200	0.316200
N161	N16	0.934700	0.170600	0.319000
O131	O13	0.076300	0.083200	0.618090
O141	O14	0.195400	0.997300	0.680800
O151	O15	0.194800	0.133330	0.710980
O161	O16	0.981200	0.688150	0.089830
O171	O17	0.863400	0.750520	0.162160
O181	O18	0.799400	0.656610	0.072480
O191	O19	0.689500	0.217360	0.154260
O201	O20	0.825300	0.301800	0.116290
O211	O21	0.652800	0.307900	0.059090
H481	H48	0.638500	0.343200	0.082500
O221	O22	0.374800	0.930890	0.676520
O231	O23	0.413900	0.065840	0.645880
O241	O24	0.495100	0.960100	0.591670
P51	P5	0.132290	0.067550	0.684610
P61	P6	0.873420	0.717100	0.095160
P71	P7	0.732510	0.258210	0.097900
P81	P8	0.450990	0.986170	0.655200
Si21	Si2	0.806070	0.992930	0.889500
C731	C73	0.818400	0.478100	0.288800
C741	C74	0.929400	0.407600	0.334300
N171	N17	0.838600	0.510100	0.345800
C751	C75	0.947700	0.553300	0.463700
H491	H49	0.911700	0.589200	0.438700
C761	C76	0.957000	0.481900	0.438800
C771	C77	0.008900	0.428500	0.475200
H501	H50	0.014700	0.380300	0.458400
C781	C78	0.909600	0.464300	0.375500
N181	N18	0.871800	0.416100	0.280800
C791	C79	0.411700	0.491300	0.338100
C801	C80	0.413700	0.528900	0.277900
H511	H51	0.369000	0.567600	0.268400
C811	C81	0.479300	0.510900	0.232000
H521	H52	0.477900	0.536800	0.191900
C821	C82	0.547100	0.454500	0.245100
C831	C83	0.551900	0.419800	0.306600
H531	H53	0.600700	0.384400	0.317400
C841	C84	0.483900	0.437500	0.352200
H541	H54	0.486900	0.412800	0.392800
C851	C85	0.322600	0.593100	0.442100
C861	C86	0.407700	0.634600	0.444700
H551	H55	0.454500	0.624000	0.414900
C871	C87	0.426000	0.692000	0.490500
H561	H56	0.484500	0.719100	0.491000
C881	C88	0.357600	0.708900	0.535300
C891	C89	0.271200	0.668700	0.531900
H571	H57	0.223100	0.680300	0.560600
C901	C90	0.255000	0.611800	0.486700
H581	H58	0.196500	0.584900	0.486200
C911	C91	0.293000	0.427600	0.448000
C921	C92	0.326400	0.431600	0.514400
H591	H59	0.360600	0.474100	0.529600
C931	C93	0.310800	0.374600	0.558800
H601	H60	0.334400	0.379500	0.603000
C941	C94	0.260400	0.310600	0.538100
C951	C95	0.229100	0.304700	0.471400
H611	H61	0.196400	0.261700	0.455800
C961	C96	0.246100	0.362200	0.427800
H621	H62	0.225100	0.356500	0.383100
C971	C97	0.197700	0.510100	0.325600
C981	C98	0.120100	0.560000	0.326400
H631	H63	0.117700	0.593000	0.361900
C991	C99	0.045300	0.562300	0.275300
H641	H64	0.993900	0.596300	0.277200
C1001	C100	0.047200	0.514100	0.221500
C1011	C101	0.123500	0.463200	0.220300
H651	H65	0.125200	0.429900	0.184900
C1021	C102	0.197500	0.461400	0.271400
H661	H66	0.248300	0.426800	0.269600
C1031	C103	0.975300	0.246600	0.655100
H671	H67	0.011400	0.245100	0.617800
C1041	C104	0.942500	0.253000	0.755000
H681	H68	0.946900	0.256400	0.801100
C1051	C105	0.758400	0.252400	0.733400
C1061	C106	0.737100	0.280200	0.793700
H691	H69	0.787600	0.295200	0.824500
C1071	C107	0.639800	0.285800	0.808500
H701	H70	0.625000	0.303900	0.849800
C1081	C108	0.564300	0.264800	0.762400
C1091	C109	0.587600	0.236800	0.702400
H711	H71	0.537300	0.221200	0.671600
C1101	C110	0.683700	0.231200	0.686800
H721	H72	0.698400	0.213300	0.645400
C1111	C111	0.461500	0.276600	0.777400
Cu71	Cu7	0.246420	0.918590	0.628450
Cu81	Cu8	0.163140	0.256130	0.744850
Cu91	Cu9	0.352800	0.142730	0.697320
N191	N19	0.018000	0.251800	0.718040
N201	N20	0.879700	0.244000	0.651500
N211	N21	0.858500	0.248500	0.716300
N221	N22	0.382500	0.241300	0.749770
N231	N23	0.305000	0.275000	0.774210
N241	N24	0.336700	0.327800	0.816200
N251	N25	0.434700	0.329400	0.819000
O251	O25	0.576300	0.416800	0.118090
O261	O26	0.695400	0.502700	0.180800
O271	O27	0.694800	0.366670	0.210980
O281	O28	0.481200	0.811850	0.589830
O291	O29	0.363400	0.749480	0.662160
O301	O30	0.299400	0.843390	0.572480
O311	O31	0.189500	0.282640	0.654260
O321	O32	0.325300	0.198200	0.616290
O331	O33	0.152800	0.192100	0.559090
H731	H73	0.138500	0.156800	0.582500
O341	O34	0.874800	0.569110	0.176520
O351	O35	0.913900	0.434160	0.145880
O361	O36	0.995100	0.539900	0.091670
P91	P9	0.632290	0.432450	0.184610
P101	P10	0.373420	0.782900	0.595160
P111	P11	0.232510	0.241790	0.597900
P121	P12	0.950990	0.513830	0.155200
Si31	Si3	0.306070	0.507070	0.389500
C1121	C112	0.318400	0.021900	0.788800
C1131	C113	0.429400	0.092400	0.834300
N261	N26	0.338600	0.989900	0.845800
C1141	C114	0.447700	0.946700	0.963700
H741	H74	0.411700	0.910800	0.938700
C1151	C115	0.457000	0.018100	0.938800
C1161	C116	0.508900	0.071500	0.975200
H751	H75	0.514700	0.119700	0.958400
C1171	C117	0.409600	0.035700	0.875500
N271	N27	0.371800	0.083900	0.780800
C1181	C118	0.088300	0.991300	0.161900
C1191	C119	0.086300	0.028900	0.222100
H761	H76	0.131000	0.067600	0.231600
C1201	C120	0.020700	0.010900	0.268000
H771	H77	0.022100	0.036800	0.308100
C1211	C121	0.952900	0.954500	0.254900
C1221	C122	0.948100	0.919800	0.193400
H781	H78	0.899300	0.884400	0.182600
C1231	C123	0.016100	0.937500	0.147800
H791	H79	0.013100	0.912800	0.107200
C1241	C124	0.177400	0.093100	0.057900
C1251	C125	0.092300	0.134600	0.055300
H801	H80	0.045500	0.124000	0.085100
C1261	C126	0.074000	0.192000	0.009500
H811	H81	0.015500	0.219100	0.009000
C1271	C127	0.142400	0.208900	0.964700
C1281	C128	0.228800	0.168700	0.968100
H821	H82	0.276900	0.180300	0.939400
C1291	C129	0.245000	0.111800	0.013300
H831	H83	0.303500	0.084900	0.013800
C1301	C130	0.207000	0.927600	0.052000
C1311	C131	0.173600	0.931600	0.985600
H841	H84	0.139400	0.974100	0.970400
C1321	C132	0.189200	0.874600	0.941200
H851	H85	0.165600	0.879500	0.897000
C1331	C133	0.239600	0.810600	0.961900
C1341	C134	0.270900	0.804700	0.028600
H861	H86	0.303600	0.761700	0.044200
C1351	C135	0.253900	0.862200	0.072200
H871	H87	0.274900	0.856500	0.116900
C1361	C136	0.302300	0.010100	0.174400
C1371	C137	0.379900	0.060000	0.173600
H881	H88	0.382300	0.093000	0.138100
C1381	C138	0.454700	0.062300	0.224700
H891	H89	0.506100	0.096300	0.222800
C1391	C139	0.452800	0.014100	0.278500
C1401	C140	0.376500	0.963200	0.279700
H901	H90	0.374800	0.929900	0.315100
C1411	C141	0.302500	0.961400	0.228600
H911	H91	0.251700	0.926800	0.230400
C1421	C142	0.524700	0.746600	0.844900
H921	H92	0.488600	0.745100	0.882200
C1431	C143	0.557500	0.753000	0.745000
H931	H93	0.553100	0.756400	0.698900
C1441	C144	0.741600	0.752400	0.766600
C1451	C145	0.762900	0.780200	0.706300
H941	H94	0.712400	0.795200	0.675500
C1461	C146	0.860200	0.785800	0.691500
H951	H95	0.875000	0.803900	0.650200
C1471	C147	0.935700	0.764800	0.737600
C1481	C148	0.912400	0.736800	0.797600
H961	H96	0.962700	0.721200	0.828400
C1491	C149	0.816300	0.731200	0.813200
H971	H97	0.801600	0.713300	0.854600
C1501	C150	0.038500	0.776600	0.722600
Cu101	Cu10	0.253580	0.418590	0.871550
Cu111	Cu11	0.336860	0.756130	0.755150
Cu121	Cu12	0.147200	0.642730	0.802680
N281	N28	0.482000	0.751800	0.781960
N291	N29	0.620300	0.744000	0.848500
N301	N30	0.641500	0.748500	0.783700
N311	N31	0.117500	0.741300	0.750230
N321	N32	0.195000	0.775000	0.725790
N331	N33	0.163300	0.827800	0.683800
N341	N34	0.065300	0.829400	0.681000
O371	O37	0.923700	0.916800	0.381910
O381	O38	0.804600	0.002700	0.319200
O391	O39	0.805200	0.866670	0.289020
O401	O40	0.018800	0.311850	0.910170
O411	O41	0.136600	0.249480	0.837840
O421	O42	0.200600	0.343390	0.927520
O431	O43	0.310500	0.782640	0.845740
O441	O44	0.174700	0.698200	0.883710
O451	O45	0.347200	0.692100	0.940910
H981	H98	0.361500	0.656800	0.917500
O461	O46	0.625200	0.069110	0.323480
O471	O47	0.586100	0.934160	0.354120
O481	O48	0.504900	0.039900	0.408330
P131	P13	0.867710	0.932450	0.315390
P141	P14	0.126580	0.282900	0.904840
P151	P15	0.267490	0.741790	0.902100
P161	P16	0.549010	0.013830	0.344800
Si41	Si4	0.193930	0.007070	0.110500
C1511	C151	0.181600	0.521900	0.711200
C1521	C152	0.070600	0.592400	0.665700
N351	N35	0.161400	0.489900	0.654200
C1531	C153	0.052300	0.446700	0.536300
H991	H99	0.088300	0.410800	0.561300
C1541	C154	0.043000	0.518100	0.561200
C1551	C155	0.991100	0.571500	0.524800
H1001	H100	0.985300	0.619700	0.541600
C1561	C156	0.090400	0.535700	0.624500
N361	N36	0.128200	0.583900	0.719200
Cu131	Cu13	0.000000	0.500000	0.000000
Cu141	Cu14	0.500000	0.000000	0.500000
