data_YARZEZ02_clean_PM
_symmetry_space_group_name_H-M	'P1'
_cell_length_a	17.056000
_cell_length_b	16.624000
_cell_length_c	17.063000
_cell_angle_alpha	90.000000
_cell_angle_beta	90.000000
_cell_angle_gamma	90.000000
_symmetry_Int_Tables_number 1

loop_
_symmetry_equiv_pos_as_xyz
'x,y,z'

loop_
_atom_site_label
_atom_site_type_symbol
_atom_site_fract_x
_atom_site_fract_y
_atom_site_fract_z
C11	C1	0.197800	0.246900	0.556100
N11	N1	0.130000	0.253200	0.561200
C21	C2	0.697800	0.746900	0.556100
N21	N2	0.630000	0.753200	0.561200
C31	C3	0.802200	0.253100	0.056100
N31	N3	0.870000	0.246800	0.061200
C41	C4	0.302200	0.753100	0.056100
N41	N4	0.370000	0.746800	0.061200
C51	C5	0.802200	0.746900	0.943900
N51	N5	0.870000	0.753200	0.938800
C61	C6	0.302200	0.246900	0.943900
N61	N6	0.370000	0.253200	0.938800
C71	C7	0.197800	0.753100	0.443900
N71	N7	0.130000	0.746800	0.438800
C81	C8	0.697800	0.253100	0.443900
N81	N8	0.630000	0.246800	0.438800
C91	C9	0.802200	0.753100	0.443900
N91	N9	0.870000	0.746800	0.438800
C101	C10	0.302200	0.253100	0.443900
N101	N10	0.370000	0.246800	0.438800
C111	C11	0.197800	0.746900	0.943900
N111	N11	0.130000	0.753200	0.938800
C121	C12	0.697800	0.246900	0.943900
N121	N12	0.630000	0.253200	0.938800
C131	C13	0.197800	0.253100	0.056100
N131	N13	0.130000	0.246800	0.061200
C141	C14	0.697800	0.753100	0.056100
N141	N14	0.630000	0.746800	0.061200
C151	C15	0.802200	0.246900	0.556100
N151	N15	0.870000	0.253200	0.561200
C161	C16	0.302200	0.746900	0.556100
N161	N16	0.370000	0.753200	0.561200
N171	N17	0.250000	0.250000	0.500000
N181	N18	0.750000	0.250000	0.000000
N191	N19	0.750000	0.750000	0.000000
N201	N20	0.250000	0.750000	0.500000
N211	N21	0.750000	0.750000	0.500000
N221	N22	0.250000	0.750000	0.000000
N231	N23	0.250000	0.250000	0.000000
N241	N24	0.750000	0.250000	0.500000
N251	N25	0.000000	0.327700	0.283800
Cd11	Cd1	0.000000	0.252980	0.550160
N261	N26	0.000000	0.135400	0.474200
C171	C17	0.000000	0.313100	0.359200
C181	C18	0.000000	0.066200	0.471700
N271	N27	0.000000	0.320900	0.425400
C191	C19	0.000000	0.276900	0.225900
N281	N28	0.000000	0.240100	0.170000
N291	N29	0.500000	0.827700	0.283800
Cd21	Cd2	0.500000	0.752980	0.550160
N301	N30	0.500000	0.635400	0.474200
C201	C20	0.500000	0.813100	0.359200
C211	C21	0.500000	0.566200	0.471700
N311	N31	0.500000	0.820900	0.425400
C221	C22	0.500000	0.776900	0.225900
N321	N32	0.500000	0.740100	0.170000
N331	N33	0.000000	0.172300	0.783800
Cd31	Cd3	0.000000	0.247020	0.050160
N341	N34	0.000000	0.364600	0.974200
C231	C23	0.000000	0.186900	0.859200
C241	C24	0.000000	0.433800	0.971700
N351	N35	0.000000	0.179100	0.925400
C251	C25	0.000000	0.223100	0.725900
N361	N36	0.000000	0.259900	0.670000
N371	N37	0.500000	0.672300	0.783800
Cd41	Cd4	0.500000	0.747020	0.050160
N381	N38	0.500000	0.864600	0.974200
C261	C26	0.500000	0.686900	0.859200
C271	C27	0.500000	0.933800	0.971700
N391	N39	0.500000	0.679100	0.925400
C281	C28	0.500000	0.723100	0.725900
N401	N40	0.500000	0.759900	0.670000
N411	N41	0.000000	0.827700	0.216200
Cd51	Cd5	0.000000	0.752980	0.949840
N421	N42	0.000000	0.635400	0.025800
C291	C29	0.000000	0.813100	0.140800
C301	C30	0.000000	0.566200	0.028300
N431	N43	0.000000	0.820900	0.074600
C311	C31	0.000000	0.776900	0.274100
N441	N44	0.000000	0.740100	0.330000
N451	N45	0.500000	0.327700	0.216200
Cd61	Cd6	0.500000	0.252980	0.949840
N461	N46	0.500000	0.135400	0.025800
C321	C32	0.500000	0.313100	0.140800
C331	C33	0.500000	0.066200	0.028300
N471	N47	0.500000	0.320900	0.074600
C341	C34	0.500000	0.276900	0.274100
N481	N48	0.500000	0.240100	0.330000
N491	N49	0.000000	0.672300	0.716200
Cd71	Cd7	0.000000	0.747020	0.449840
N501	N50	0.000000	0.864600	0.525800
C351	C35	0.000000	0.686900	0.640800
C361	C36	0.000000	0.933800	0.528300
N511	N51	0.000000	0.679100	0.574600
C371	C37	0.000000	0.723100	0.774100
N521	N52	0.000000	0.759900	0.830000
N531	N53	0.500000	0.172300	0.716200
Cd81	Cd8	0.500000	0.247020	0.449840
N541	N54	0.500000	0.364600	0.525800
C381	C38	0.500000	0.186900	0.640800
C391	C39	0.500000	0.433800	0.528300
N551	N55	0.500000	0.179100	0.574600
C401	C40	0.500000	0.223100	0.774100
N561	N56	0.500000	0.259900	0.830000
N571	N57	0.000000	0.000000	0.500000
N581	N58	0.500000	0.500000	0.500000
N591	N59	0.000000	0.500000	0.000000
N601	N60	0.500000	0.000000	0.000000
