data_YARZEZ03_clean_PM
_symmetry_space_group_name_H-M	'P1'
_cell_length_a	17.250000
_cell_length_b	17.570000
_cell_length_c	16.790000
_cell_angle_alpha	90.000000
_cell_angle_beta	90.000000
_cell_angle_gamma	90.000000
_symmetry_Int_Tables_number 1

loop_
_symmetry_equiv_pos_as_xyz
'x,y,z'

loop_
_atom_site_label
_atom_site_type_symbol
_atom_site_fract_x
_atom_site_fract_y
_atom_site_fract_z
N11	N1	0.193200	0.295100	0.365800
C11	C1	0.208700	0.278400	0.299700
N21	N2	0.693200	0.795100	0.865800
C21	C2	0.708700	0.778400	0.799700
N31	N3	0.806800	0.704900	0.365800
C31	C3	0.791300	0.721600	0.299700
N41	N4	0.306800	0.204900	0.865800
C41	C4	0.291300	0.221600	0.799700
N51	N5	0.306800	0.795100	0.634200
C51	C5	0.291300	0.778400	0.700300
N61	N6	0.806800	0.295100	0.134200
C61	C6	0.791300	0.278400	0.200300
N71	N7	0.693200	0.204900	0.634200
C71	C7	0.708700	0.221600	0.700300
N81	N8	0.193200	0.704900	0.134200
C81	C8	0.208700	0.721600	0.200300
N91	N9	0.806800	0.704900	0.634200
C91	C9	0.791300	0.721600	0.700300
N101	N10	0.306800	0.204900	0.134200
C101	C10	0.291300	0.221600	0.200300
N111	N11	0.193200	0.295100	0.634200
C111	C11	0.208700	0.278400	0.700300
N121	N12	0.693200	0.795100	0.134200
C121	C12	0.708700	0.778400	0.200300
N131	N13	0.693200	0.204900	0.365800
C131	C13	0.708700	0.221600	0.299700
N141	N14	0.193200	0.704900	0.865800
C141	C14	0.208700	0.721600	0.799700
N151	N15	0.306800	0.795100	0.365800
C151	C15	0.291300	0.778400	0.299700
N161	N16	0.806800	0.295100	0.865800
C161	C16	0.791300	0.278400	0.799700
N171	N17	0.476400	0.295300	0.500000
C171	C17	0.400700	0.305600	0.500000
N181	N18	0.337400	0.287200	0.500000
Cd11	Cd1	0.203740	0.288020	0.500000
N191	N19	0.200600	0.157300	0.500000
C181	C18	0.201000	0.094200	0.500000
N201	N20	0.199200	0.019900	0.500000
N211	N21	0.299000	0.922800	0.500000
C191	C19	0.261600	0.976500	0.500000
C201	C20	0.509600	0.226800	0.500000
N221	N22	0.568100	0.192900	0.500000
N231	N23	0.976400	0.795300	0.000000
C211	C21	0.900700	0.805600	0.000000
N241	N24	0.837400	0.787200	0.000000
Cd21	Cd2	0.703740	0.788020	0.000000
N251	N25	0.700600	0.657300	0.000000
C221	C22	0.701000	0.594200	0.000000
N261	N26	0.699200	0.519900	0.000000
N271	N27	0.799000	0.422800	0.000000
C231	C23	0.761600	0.476500	0.000000
C241	C24	0.009600	0.726800	0.000000
N281	N28	0.068100	0.692900	0.000000
N291	N29	0.523600	0.704700	0.500000
C251	C25	0.599300	0.694400	0.500000
N301	N30	0.662600	0.712800	0.500000
Cd31	Cd3	0.796260	0.711980	0.500000
N311	N31	0.799400	0.842700	0.500000
C261	C26	0.799000	0.905800	0.500000
N321	N32	0.800800	0.980100	0.500000
N331	N33	0.701000	0.077200	0.500000
C271	C27	0.738400	0.023500	0.500000
C281	C28	0.490400	0.773200	0.500000
N341	N34	0.431900	0.807100	0.500000
N351	N35	0.023600	0.204700	0.000000
C291	C29	0.099300	0.194400	0.000000
N361	N36	0.162600	0.212800	0.000000
Cd41	Cd4	0.296260	0.211980	0.000000
N371	N37	0.299400	0.342700	0.000000
C301	C30	0.299000	0.405800	0.000000
N381	N38	0.300800	0.480100	0.000000
N391	N39	0.201000	0.577200	0.000000
C311	C31	0.238400	0.523500	0.000000
C321	C32	0.990400	0.273200	0.000000
N401	N40	0.931900	0.307100	0.000000
N411	N41	0.023600	0.795300	0.500000
C331	C33	0.099300	0.805600	0.500000
N421	N42	0.162600	0.787200	0.500000
Cd51	Cd5	0.296260	0.788020	0.500000
N431	N43	0.299400	0.657300	0.500000
C341	C34	0.299000	0.594200	0.500000
N441	N44	0.300800	0.519900	0.500000
N451	N45	0.201000	0.422800	0.500000
C351	C35	0.238400	0.476500	0.500000
C361	C36	0.990400	0.726800	0.500000
N461	N46	0.931900	0.692900	0.500000
N471	N47	0.523600	0.295300	0.000000
C371	C37	0.599300	0.305600	0.000000
N481	N48	0.662600	0.287200	0.000000
Cd61	Cd6	0.796260	0.288020	0.000000
N491	N49	0.799400	0.157300	0.000000
C381	C38	0.799000	0.094200	0.000000
N501	N50	0.800800	0.019900	0.000000
N511	N51	0.701000	0.922800	0.000000
C391	C39	0.738400	0.976500	0.000000
C401	C40	0.490400	0.226800	0.000000
N521	N52	0.431900	0.192900	0.000000
N531	N53	0.976400	0.204700	0.500000
C411	C41	0.900700	0.194400	0.500000
N541	N54	0.837400	0.212800	0.500000
Cd71	Cd7	0.703740	0.211980	0.500000
N551	N55	0.700600	0.342700	0.500000
C421	C42	0.701000	0.405800	0.500000
N561	N56	0.699200	0.480100	0.500000
N571	N57	0.799000	0.577200	0.500000
C431	C43	0.761600	0.523500	0.500000
C441	C44	0.009600	0.273200	0.500000
N581	N58	0.068100	0.307100	0.500000
N591	N59	0.476400	0.704700	0.000000
C451	C45	0.400700	0.694400	0.000000
N601	N60	0.337400	0.712800	0.000000
Cd81	Cd8	0.203740	0.711980	0.000000
N611	N61	0.200600	0.842700	0.000000
C461	C46	0.201000	0.905800	0.000000
N621	N62	0.199200	0.980100	0.000000
N631	N63	0.299000	0.077200	0.000000
C471	C47	0.261600	0.023500	0.000000
C481	C48	0.509600	0.773200	0.000000
N641	N64	0.568100	0.807100	0.000000
N651	N65	0.250000	0.250000	0.250000
N661	N66	0.750000	0.750000	0.250000
N671	N67	0.250000	0.750000	0.750000
N681	N68	0.750000	0.250000	0.750000
N691	N69	0.750000	0.750000	0.750000
N701	N70	0.250000	0.250000	0.750000
N711	N71	0.750000	0.250000	0.250000
N721	N72	0.250000	0.750000	0.250000
