data_YARZEZ_clean_PM
_symmetry_space_group_name_H-M	'P1'
_cell_length_a	10.498000
_cell_length_b	16.500000
_cell_length_c	15.763000
_cell_angle_alpha	90.000000
_cell_angle_beta	128.040000
_cell_angle_gamma	90.000000
_symmetry_Int_Tables_number 1

loop_
_symmetry_equiv_pos_as_xyz
'x,y,z'

loop_
_atom_site_label
_atom_site_type_symbol
_atom_site_fract_x
_atom_site_fract_y
_atom_site_fract_z
C11	C1	0.524800	0.646400	0.676300
Cd11	Cd1	0.564810	0.823410	0.807710
N11	N1	0.405200	0.445020	0.610700
N21	N2	0.526000	0.705100	0.716800
N31	N3	0.506000	0.579200	0.616500
C21	C2	0.451300	0.513160	0.614800
N41	N4	0.846900	0.800600	0.920100
C31	C3	0.949300	0.761000	0.960600
N51	N5	0.519000	0.749300	0.915100
N61	N6	0.437500	0.648700	0.984600
C41	C4	0.491800	0.706700	0.956500
N71	N7	0.281800	0.653000	0.179400
N81	N8	0.073600	0.713800	0.984600
C51	C5	0.188500	0.681400	0.101200
N91	N9	0.579000	0.610900	0.177600
C61	C6	0.513000	0.630700	0.089000
C71	C7	0.475200	0.146400	0.823700
Cd21	Cd2	0.435190	0.323410	0.692290
N101	N10	0.594800	0.945020	0.889300
N111	N11	0.474000	0.205100	0.783200
N121	N12	0.494000	0.079200	0.883500
C81	C8	0.548700	0.013160	0.885200
N131	N13	0.153100	0.300600	0.579900
C91	C9	0.050700	0.261000	0.539400
N141	N14	0.481000	0.249300	0.584900
N151	N15	0.562500	0.148700	0.515400
C101	C10	0.508200	0.206700	0.543500
N161	N16	0.718200	0.153000	0.320600
N171	N17	0.926400	0.213800	0.515400
C111	C11	0.811500	0.181400	0.398800
N181	N18	0.421000	0.110900	0.322400
C121	C12	0.487000	0.130700	0.411000
C131	C13	0.475200	0.353600	0.323700
Cd31	Cd3	0.435190	0.176590	0.192290
N191	N19	0.594800	0.554980	0.389300
N201	N20	0.474000	0.294900	0.283200
N211	N21	0.494000	0.420800	0.383500
C141	C14	0.548700	0.486840	0.385200
N221	N22	0.153100	0.199400	0.079900
C151	C15	0.050700	0.239000	0.039400
N231	N23	0.481000	0.250700	0.084900
N241	N24	0.562500	0.351300	0.015400
C161	C16	0.508200	0.293300	0.043500
N251	N25	0.718200	0.347000	0.820600
N261	N26	0.926400	0.286200	0.015400
C171	C17	0.811500	0.318600	0.898800
N271	N27	0.421000	0.389100	0.822400
C181	C18	0.487000	0.369300	0.911000
C191	C19	0.524800	0.853600	0.176300
Cd41	Cd4	0.564810	0.676590	0.307710
N281	N28	0.405200	0.054980	0.110700
N291	N29	0.526000	0.794900	0.216800
N301	N30	0.506000	0.920800	0.116500
C201	C20	0.451300	0.986840	0.114800
N311	N31	0.846900	0.699400	0.420100
C211	C21	0.949300	0.739000	0.460600
N321	N32	0.519000	0.750700	0.415100
N331	N33	0.437500	0.851300	0.484600
C221	C22	0.491800	0.793300	0.456500
N341	N34	0.281800	0.847000	0.679400
N351	N35	0.073600	0.786200	0.484600
C231	C23	0.188500	0.818600	0.601200
N361	N36	0.579000	0.889100	0.677600
C241	C24	0.513000	0.869300	0.589000
