data_YASLOW_clean_PM
_symmetry_space_group_name_H-M	'P1'
_cell_length_a	27.720500
_cell_length_b	27.720500
_cell_length_c	27.720500
_cell_angle_alpha	90.000000
_cell_angle_beta	90.000000
_cell_angle_gamma	90.000000
_symmetry_Int_Tables_number 1

loop_
_symmetry_equiv_pos_as_xyz
'x,y,z'

loop_
_atom_site_label
_atom_site_type_symbol
_atom_site_fract_x
_atom_site_fract_y
_atom_site_fract_z
O11	O1	0.445510	0.418950	0.857910
O21	O2	0.517000	0.397130	0.887700
C11	C1	0.487890	0.402860	0.854230
C21	C2	0.501780	0.388340	0.804740
C31	C3	0.478160	0.384800	0.762480
H11	H1	0.445600	0.393400	0.756300
H21	H2	0.479600	0.520400	0.917100
O31	O3	0.445510	0.918950	0.357910
O41	O4	0.517000	0.897130	0.387700
C41	C4	0.487890	0.902860	0.354230
C51	C5	0.501780	0.888340	0.304740
C61	C6	0.478160	0.884800	0.262480
H31	H3	0.445600	0.893400	0.256300
H41	H4	0.479600	0.020400	0.417100
O51	O5	0.945510	0.418950	0.357910
O61	O6	0.017000	0.397130	0.387700
C71	C7	0.987890	0.402860	0.354230
C81	C8	0.001780	0.388340	0.304740
C91	C9	0.978160	0.384800	0.262480
H51	H5	0.945600	0.393400	0.256300
H61	H6	0.979600	0.520400	0.417100
O71	O7	0.945510	0.918950	0.857910
O81	O8	0.017000	0.897130	0.887700
C101	C10	0.987890	0.902860	0.854230
C111	C11	0.001780	0.888340	0.804740
C121	C12	0.978160	0.884800	0.762480
H71	H7	0.945600	0.893400	0.756300
H81	H8	0.979600	0.020400	0.917100
O91	O9	0.554490	0.081050	0.357910
O101	O10	0.483000	0.102870	0.387700
C131	C13	0.512110	0.097140	0.354230
C141	C14	0.498220	0.111660	0.304740
C151	C15	0.521840	0.115200	0.262480
H91	H9	0.554400	0.106600	0.256300
H101	H10	0.520400	0.979600	0.417100
O111	O11	0.554490	0.581050	0.857910
O121	O12	0.483000	0.602870	0.887700
C161	C16	0.512110	0.597140	0.854230
C171	C17	0.498220	0.611660	0.804740
C181	C18	0.521840	0.615200	0.762480
H111	H11	0.554400	0.606600	0.756300
H121	H12	0.520400	0.479600	0.917100
O131	O13	0.054490	0.081050	0.857910
O141	O14	0.983000	0.102870	0.887700
C191	C19	0.012110	0.097140	0.854230
C201	C20	0.998220	0.111660	0.804740
C211	C21	0.021840	0.115200	0.762480
H131	H13	0.054400	0.106600	0.756300
H141	H14	0.020400	0.979600	0.917100
O151	O15	0.054490	0.581050	0.357910
O161	O16	0.983000	0.602870	0.387700
C221	C22	0.012110	0.597140	0.354230
C231	C23	0.998220	0.611660	0.304740
C241	C24	0.021840	0.615200	0.262480
H151	H15	0.054400	0.606600	0.256300
H161	H16	0.020400	0.479600	0.417100
O171	O17	0.054490	0.918950	0.142090
O181	O18	0.983000	0.897130	0.112300
C251	C25	0.012110	0.902860	0.145770
C261	C26	0.998220	0.888340	0.195260
C271	C27	0.021840	0.884800	0.237520
H171	H17	0.054400	0.893400	0.243700
H181	H18	0.020400	0.020400	0.082900
O191	O19	0.054490	0.418950	0.642090
O201	O20	0.983000	0.397130	0.612300
C281	C28	0.012110	0.402860	0.645770
C291	C29	0.998220	0.388340	0.695260
C301	C30	0.021840	0.384800	0.737520
H191	H19	0.054400	0.393400	0.743700
H201	H20	0.020400	0.520400	0.582900
O211	O21	0.554490	0.918950	0.642090
O221	O22	0.483000	0.897130	0.612300
C311	C31	0.512110	0.902860	0.645770
C321	C32	0.498220	0.888340	0.695260
C331	C33	0.521840	0.884800	0.737520
H211	H21	0.554400	0.893400	0.743700
H221	H22	0.520400	0.020400	0.582900
O231	O23	0.554490	0.418950	0.142090
O241	O24	0.483000	0.397130	0.112300
C341	C34	0.512110	0.402860	0.145770
C351	C35	0.498220	0.388340	0.195260
C361	C36	0.521840	0.384800	0.237520
H231	H23	0.554400	0.393400	0.243700
H241	H24	0.520400	0.520400	0.082900
O251	O25	0.945510	0.581050	0.642090
O261	O26	0.017000	0.602870	0.612300
C371	C37	0.987890	0.597140	0.645770
C381	C38	0.001780	0.611660	0.695260
C391	C39	0.978160	0.615200	0.737520
H251	H25	0.945600	0.606600	0.743700
H261	H26	0.979600	0.479600	0.582900
O271	O27	0.945510	0.081050	0.142090
O281	O28	0.017000	0.102870	0.112300
C401	C40	0.987890	0.097140	0.145770
C411	C41	0.001780	0.111660	0.195260
C421	C42	0.978160	0.115200	0.237520
H271	H27	0.945600	0.106600	0.243700
H281	H28	0.979600	0.979600	0.082900
O291	O29	0.445510	0.581050	0.142090
O301	O30	0.517000	0.602870	0.112300
C431	C43	0.487890	0.597140	0.145770
C441	C44	0.501780	0.611660	0.195260
C451	C45	0.478160	0.615200	0.237520
H291	H29	0.445600	0.606600	0.243700
H301	H30	0.479600	0.479600	0.082900
O311	O31	0.445510	0.081050	0.642090
O321	O32	0.517000	0.102870	0.612300
C461	C46	0.487890	0.097140	0.645770
C471	C47	0.501780	0.111660	0.695260
C481	C48	0.478160	0.115200	0.737520
H311	H31	0.445600	0.106600	0.743700
H321	H32	0.479600	0.979600	0.582900
O331	O33	0.857910	0.445510	0.418950
O341	O34	0.887700	0.517000	0.397130
C491	C49	0.854230	0.487890	0.402860
C501	C50	0.804740	0.501780	0.388340
C511	C51	0.762480	0.478160	0.384800
H331	H33	0.756300	0.445600	0.393400
H341	H34	0.917100	0.479600	0.520400
O351	O35	0.857910	0.945510	0.918950
O361	O36	0.887700	0.017000	0.897130
C521	C52	0.854230	0.987890	0.902860
C531	C53	0.804740	0.001780	0.888340
C541	C54	0.762480	0.978160	0.884800
H351	H35	0.756300	0.945600	0.893400
H361	H36	0.917100	0.979600	0.020400
O371	O37	0.357910	0.445510	0.918950
O381	O38	0.387700	0.517000	0.897130
C551	C55	0.354230	0.487890	0.902860
C561	C56	0.304740	0.501780	0.888340
C571	C57	0.262480	0.478160	0.884800
H371	H37	0.256300	0.445600	0.893400
H381	H38	0.417100	0.479600	0.020400
O391	O39	0.357910	0.945510	0.418950
O401	O40	0.387700	0.017000	0.397130
C581	C58	0.354230	0.987890	0.402860
C591	C59	0.304740	0.001780	0.388340
C601	C60	0.262480	0.978160	0.384800
H391	H39	0.256300	0.945600	0.393400
H401	H40	0.417100	0.979600	0.520400
O411	O41	0.357910	0.554490	0.081050
O421	O42	0.387700	0.483000	0.102870
C611	C61	0.354230	0.512110	0.097140
C621	C62	0.304740	0.498220	0.111660
C631	C63	0.262480	0.521840	0.115200
H411	H41	0.256300	0.554400	0.106600
H421	H42	0.417100	0.520400	0.979600
O431	O43	0.357910	0.054490	0.581050
O441	O44	0.387700	0.983000	0.602870
C641	C64	0.354230	0.012110	0.597140
C651	C65	0.304740	0.998220	0.611660
C661	C66	0.262480	0.021840	0.615200
H431	H43	0.256300	0.054400	0.606600
H441	H44	0.417100	0.020400	0.479600
O451	O45	0.857910	0.554490	0.581050
O461	O46	0.887700	0.483000	0.602870
C671	C67	0.854230	0.512110	0.597140
C681	C68	0.804740	0.498220	0.611660
C691	C69	0.762480	0.521840	0.615200
H451	H45	0.756300	0.554400	0.606600
H461	H46	0.917100	0.520400	0.479600
O471	O47	0.857910	0.054490	0.081050
O481	O48	0.887700	0.983000	0.102870
C701	C70	0.854230	0.012110	0.097140
C711	C71	0.804740	0.998220	0.111660
C721	C72	0.762480	0.021840	0.115200
H471	H47	0.756300	0.054400	0.106600
H481	H48	0.917100	0.020400	0.979600
O491	O49	0.142090	0.054490	0.918950
O501	O50	0.112300	0.983000	0.897130
C731	C73	0.145770	0.012110	0.902860
C741	C74	0.195260	0.998220	0.888340
C751	C75	0.237520	0.021840	0.884800
H491	H49	0.243700	0.054400	0.893400
H501	H50	0.082900	0.020400	0.020400
O511	O51	0.142090	0.554490	0.418950
O521	O52	0.112300	0.483000	0.397130
C761	C76	0.145770	0.512110	0.402860
C771	C77	0.195260	0.498220	0.388340
C781	C78	0.237520	0.521840	0.384800
H511	H51	0.243700	0.554400	0.393400
H521	H52	0.082900	0.520400	0.520400
O531	O53	0.642090	0.054490	0.418950
O541	O54	0.612300	0.983000	0.397130
C791	C79	0.645770	0.012110	0.402860
C801	C80	0.695260	0.998220	0.388340
C811	C81	0.737520	0.021840	0.384800
H531	H53	0.743700	0.054400	0.393400
H541	H54	0.582900	0.020400	0.520400
O551	O55	0.642090	0.554490	0.918950
O561	O56	0.612300	0.483000	0.897130
C821	C82	0.645770	0.512110	0.902860
C831	C83	0.695260	0.498220	0.888340
C841	C84	0.737520	0.521840	0.884800
H551	H55	0.743700	0.554400	0.893400
H561	H56	0.582900	0.520400	0.020400
O571	O57	0.642090	0.945510	0.581050
O581	O58	0.612300	0.017000	0.602870
C851	C85	0.645770	0.987890	0.597140
C861	C86	0.695260	0.001780	0.611660
C871	C87	0.737520	0.978160	0.615200
H571	H57	0.743700	0.945600	0.606600
H581	H58	0.582900	0.979600	0.479600
O591	O59	0.642090	0.445510	0.081050
O601	O60	0.612300	0.517000	0.102870
C881	C88	0.645770	0.487890	0.097140
C891	C89	0.695260	0.501780	0.111660
C901	C90	0.737520	0.478160	0.115200
H591	H59	0.743700	0.445600	0.106600
H601	H60	0.582900	0.479600	0.979600
O611	O61	0.142090	0.945510	0.081050
O621	O62	0.112300	0.017000	0.102870
C911	C91	0.145770	0.987890	0.097140
C921	C92	0.195260	0.001780	0.111660
C931	C93	0.237520	0.978160	0.115200
H611	H61	0.243700	0.945600	0.106600
H621	H62	0.082900	0.979600	0.979600
O631	O63	0.142090	0.445510	0.581050
O641	O64	0.112300	0.517000	0.602870
C941	C94	0.145770	0.487890	0.597140
C951	C95	0.195260	0.501780	0.611660
C961	C96	0.237520	0.478160	0.615200
H631	H63	0.243700	0.445600	0.606600
H641	H64	0.082900	0.479600	0.479600
O651	O65	0.418950	0.857910	0.445510
O661	O66	0.397130	0.887700	0.517000
C971	C97	0.402860	0.854230	0.487890
C981	C98	0.388340	0.804740	0.501780
C991	C99	0.384800	0.762480	0.478160
H651	H65	0.393400	0.756300	0.445600
H661	H66	0.520400	0.917100	0.479600
O671	O67	0.418950	0.357910	0.945510
O681	O68	0.397130	0.387700	0.017000
C1001	C100	0.402860	0.354230	0.987890
C1011	C101	0.388340	0.304740	0.001780
C1021	C102	0.384800	0.262480	0.978160
H671	H67	0.393400	0.256300	0.945600
H681	H68	0.520400	0.417100	0.979600
O691	O69	0.918950	0.857910	0.945510
O701	O70	0.897130	0.887700	0.017000
C1031	C103	0.902860	0.854230	0.987890
C1041	C104	0.888340	0.804740	0.001780
C1051	C105	0.884800	0.762480	0.978160
H691	H69	0.893400	0.756300	0.945600
H701	H70	0.020400	0.917100	0.979600
O711	O71	0.918950	0.357910	0.445510
O721	O72	0.897130	0.387700	0.517000
C1061	C106	0.902860	0.354230	0.487890
C1071	C107	0.888340	0.304740	0.501780
C1081	C108	0.884800	0.262480	0.478160
H711	H71	0.893400	0.256300	0.445600
H721	H72	0.020400	0.417100	0.479600
O731	O73	0.081050	0.357910	0.554490
O741	O74	0.102870	0.387700	0.483000
C1091	C109	0.097140	0.354230	0.512110
C1101	C110	0.111660	0.304740	0.498220
C1111	C111	0.115200	0.262480	0.521840
H731	H73	0.106600	0.256300	0.554400
H741	H74	0.979600	0.417100	0.520400
O751	O75	0.081050	0.857910	0.054490
O761	O76	0.102870	0.887700	0.983000
C1121	C112	0.097140	0.854230	0.012110
C1131	C113	0.111660	0.804740	0.998220
C1141	C114	0.115200	0.762480	0.021840
H751	H75	0.106600	0.756300	0.054400
H761	H76	0.979600	0.917100	0.020400
O771	O77	0.581050	0.357910	0.054490
O781	O78	0.602870	0.387700	0.983000
C1151	C115	0.597140	0.354230	0.012110
C1161	C116	0.611660	0.304740	0.998220
C1171	C117	0.615200	0.262480	0.021840
H771	H77	0.606600	0.256300	0.054400
H781	H78	0.479600	0.417100	0.020400
O791	O79	0.581050	0.857910	0.554490
O801	O80	0.602870	0.887700	0.483000
C1181	C118	0.597140	0.854230	0.512110
C1191	C119	0.611660	0.804740	0.498220
C1201	C120	0.615200	0.762480	0.521840
H791	H79	0.606600	0.756300	0.554400
H801	H80	0.479600	0.917100	0.520400
O811	O81	0.918950	0.142090	0.054490
O821	O82	0.897130	0.112300	0.983000
C1211	C121	0.902860	0.145770	0.012110
C1221	C122	0.888340	0.195260	0.998220
C1231	C123	0.884800	0.237520	0.021840
H811	H81	0.893400	0.243700	0.054400
H821	H82	0.020400	0.082900	0.020400
O831	O83	0.918950	0.642090	0.554490
O841	O84	0.897130	0.612300	0.483000
C1241	C124	0.902860	0.645770	0.512110
C1251	C125	0.888340	0.695260	0.498220
C1261	C126	0.884800	0.737520	0.521840
H831	H83	0.893400	0.743700	0.554400
H841	H84	0.020400	0.582900	0.520400
O851	O85	0.418950	0.142090	0.554490
O861	O86	0.397130	0.112300	0.483000
C1271	C127	0.402860	0.145770	0.512110
C1281	C128	0.388340	0.195260	0.498220
C1291	C129	0.384800	0.237520	0.521840
H851	H85	0.393400	0.243700	0.554400
H861	H86	0.520400	0.082900	0.520400
O871	O87	0.418950	0.642090	0.054490
O881	O88	0.397130	0.612300	0.983000
C1301	C130	0.402860	0.645770	0.012110
C1311	C131	0.388340	0.695260	0.998220
C1321	C132	0.384800	0.737520	0.021840
H871	H87	0.393400	0.743700	0.054400
H881	H88	0.520400	0.582900	0.020400
O891	O89	0.581050	0.642090	0.945510
O901	O90	0.602870	0.612300	0.017000
C1331	C133	0.597140	0.645770	0.987890
C1341	C134	0.611660	0.695260	0.001780
C1351	C135	0.615200	0.737520	0.978160
H891	H89	0.606600	0.743700	0.945600
H901	H90	0.479600	0.582900	0.979600
O911	O91	0.581050	0.142090	0.445510
O921	O92	0.602870	0.112300	0.517000
C1361	C136	0.597140	0.145770	0.487890
C1371	C137	0.611660	0.195260	0.501780
C1381	C138	0.615200	0.237520	0.478160
H911	H91	0.606600	0.243700	0.445600
H921	H92	0.479600	0.082900	0.479600
O931	O93	0.081050	0.642090	0.445510
O941	O94	0.102870	0.612300	0.517000
C1391	C139	0.097140	0.645770	0.487890
C1401	C140	0.111660	0.695260	0.501780
C1411	C141	0.115200	0.737520	0.478160
H931	H93	0.106600	0.743700	0.445600
H941	H94	0.979600	0.582900	0.479600
O951	O95	0.081050	0.142090	0.945510
O961	O96	0.102870	0.112300	0.017000
C1421	C142	0.097140	0.145770	0.987890
C1431	C143	0.111660	0.195260	0.001780
C1441	C144	0.115200	0.237520	0.978160
H951	H95	0.106600	0.243700	0.945600
H961	H96	0.979600	0.082900	0.979600
O971	O97	0.168950	0.695510	0.892090
O981	O98	0.147130	0.767000	0.862300
C1451	C145	0.152860	0.737890	0.895770
C1461	C146	0.138340	0.751780	0.945260
C1471	C147	0.134800	0.728160	0.987520
H971	H97	0.143400	0.695600	0.993700
H981	H98	0.270400	0.729600	0.832900
O991	O99	0.168950	0.195510	0.392090
O1001	O100	0.147130	0.267000	0.362300
C1481	C148	0.152860	0.237890	0.395770
C1491	C149	0.138340	0.251780	0.445260
C1501	C150	0.134800	0.228160	0.487520
H991	H99	0.143400	0.195600	0.493700
H1001	H100	0.270400	0.229600	0.332900
O1011	O101	0.668950	0.695510	0.392090
O1021	O102	0.647130	0.767000	0.362300
C1511	C151	0.652860	0.737890	0.395770
C1521	C152	0.638340	0.751780	0.445260
C1531	C153	0.634800	0.728160	0.487520
H1011	H101	0.643400	0.695600	0.493700
H1021	H102	0.770400	0.729600	0.332900
O1031	O103	0.668950	0.195510	0.892090
O1041	O104	0.647130	0.267000	0.862300
C1541	C154	0.652860	0.237890	0.895770
C1551	C155	0.638340	0.251780	0.945260
C1561	C156	0.634800	0.228160	0.987520
H1031	H103	0.643400	0.195600	0.993700
H1041	H104	0.770400	0.229600	0.832900
O1051	O105	0.831050	0.804490	0.392090
O1061	O106	0.852870	0.733000	0.362300
C1571	C157	0.847140	0.762110	0.395770
C1581	C158	0.861660	0.748220	0.445260
C1591	C159	0.865200	0.771840	0.487520
H1051	H105	0.856600	0.804400	0.493700
H1061	H106	0.729600	0.770400	0.332900
O1071	O107	0.831050	0.304490	0.892090
O1081	O108	0.852870	0.233000	0.862300
C1601	C160	0.847140	0.262110	0.895770
C1611	C161	0.861660	0.248220	0.945260
C1621	C162	0.865200	0.271840	0.987520
H1071	H107	0.856600	0.304400	0.993700
H1081	H108	0.729600	0.270400	0.832900
O1091	O109	0.331050	0.804490	0.892090
O1101	O110	0.352870	0.733000	0.862300
C1631	C163	0.347140	0.762110	0.895770
C1641	C164	0.361660	0.748220	0.945260
C1651	C165	0.365200	0.771840	0.987520
H1091	H109	0.356600	0.804400	0.993700
H1101	H110	0.229600	0.770400	0.832900
O1111	O111	0.331050	0.304490	0.392090
O1121	O112	0.352870	0.233000	0.362300
C1661	C166	0.347140	0.262110	0.395770
C1671	C167	0.361660	0.248220	0.445260
C1681	C168	0.365200	0.271840	0.487520
H1111	H111	0.356600	0.304400	0.493700
H1121	H112	0.229600	0.270400	0.332900
O1131	O113	0.668950	0.304490	0.607910
O1141	O114	0.647130	0.233000	0.637700
C1691	C169	0.652860	0.262110	0.604230
C1701	C170	0.638340	0.248220	0.554740
C1711	C171	0.634800	0.271840	0.512480
H1131	H113	0.643400	0.304400	0.506300
H1141	H114	0.770400	0.270400	0.667100
O1151	O115	0.668950	0.804490	0.107910
O1161	O116	0.647130	0.733000	0.137700
C1721	C172	0.652860	0.762110	0.104230
C1731	C173	0.638340	0.748220	0.054740
C1741	C174	0.634800	0.771840	0.012480
H1151	H115	0.643400	0.804400	0.006300
H1161	H116	0.770400	0.770400	0.167100
O1171	O117	0.168950	0.304490	0.107910
O1181	O118	0.147130	0.233000	0.137700
C1751	C175	0.152860	0.262110	0.104230
C1761	C176	0.138340	0.248220	0.054740
C1771	C177	0.134800	0.271840	0.012480
H1171	H117	0.143400	0.304400	0.006300
H1181	H118	0.270400	0.270400	0.167100
O1191	O119	0.168950	0.804490	0.607910
O1201	O120	0.147130	0.733000	0.637700
C1781	C178	0.152860	0.762110	0.604230
C1791	C179	0.138340	0.748220	0.554740
C1801	C180	0.134800	0.771840	0.512480
H1191	H119	0.143400	0.804400	0.506300
H1201	H120	0.270400	0.770400	0.667100
O1211	O121	0.331050	0.195510	0.107910
O1221	O122	0.352870	0.267000	0.137700
C1811	C181	0.347140	0.237890	0.104230
C1821	C182	0.361660	0.251780	0.054740
C1831	C183	0.365200	0.228160	0.012480
H1211	H121	0.356600	0.195600	0.006300
H1221	H122	0.229600	0.229600	0.167100
O1231	O123	0.331050	0.695510	0.607910
O1241	O124	0.352870	0.767000	0.637700
C1841	C184	0.347140	0.737890	0.604230
C1851	C185	0.361660	0.751780	0.554740
C1861	C186	0.365200	0.728160	0.512480
H1231	H123	0.356600	0.695600	0.506300
H1241	H124	0.229600	0.729600	0.667100
O1251	O125	0.831050	0.195510	0.607910
O1261	O126	0.852870	0.267000	0.637700
C1871	C187	0.847140	0.237890	0.604230
C1881	C188	0.861660	0.251780	0.554740
C1891	C189	0.865200	0.228160	0.512480
H1251	H125	0.856600	0.195600	0.506300
H1261	H126	0.729600	0.229600	0.667100
O1271	O127	0.831050	0.695510	0.107910
O1281	O128	0.852870	0.767000	0.137700
C1901	C190	0.847140	0.737890	0.104230
C1911	C191	0.861660	0.751780	0.054740
C1921	C192	0.865200	0.728160	0.012480
H1271	H127	0.856600	0.695600	0.006300
H1281	H128	0.729600	0.729600	0.167100
O1291	O129	0.195510	0.107910	0.331050
O1301	O130	0.267000	0.137700	0.352870
C1931	C193	0.237890	0.104230	0.347140
C1941	C194	0.251780	0.054740	0.361660
C1951	C195	0.228160	0.012480	0.365200
H1291	H129	0.195600	0.006300	0.356600
H1301	H130	0.229600	0.167100	0.229600
O1311	O131	0.195510	0.607910	0.831050
O1321	O132	0.267000	0.637700	0.852870
C1961	C196	0.237890	0.604230	0.847140
C1971	C197	0.251780	0.554740	0.861660
C1981	C198	0.228160	0.512480	0.865200
H1311	H131	0.195600	0.506300	0.856600
H1321	H132	0.229600	0.667100	0.729600
O1331	O133	0.695510	0.107910	0.831050
O1341	O134	0.767000	0.137700	0.852870
C1991	C199	0.737890	0.104230	0.847140
C2001	C200	0.751780	0.054740	0.861660
C2011	C201	0.728160	0.012480	0.865200
H1331	H133	0.695600	0.006300	0.856600
H1341	H134	0.729600	0.167100	0.729600
O1351	O135	0.695510	0.607910	0.331050
O1361	O136	0.767000	0.637700	0.352870
C2021	C202	0.737890	0.604230	0.347140
C2031	C203	0.751780	0.554740	0.361660
C2041	C204	0.728160	0.512480	0.365200
H1351	H135	0.695600	0.506300	0.356600
H1361	H136	0.729600	0.667100	0.229600
O1371	O137	0.304490	0.607910	0.668950
O1381	O138	0.233000	0.637700	0.647130
C2051	C205	0.262110	0.604230	0.652860
C2061	C206	0.248220	0.554740	0.638340
C2071	C207	0.271840	0.512480	0.634800
H1371	H137	0.304400	0.506300	0.643400
H1381	H138	0.270400	0.667100	0.770400
O1391	O139	0.304490	0.107910	0.168950
O1401	O140	0.233000	0.137700	0.147130
C2081	C208	0.262110	0.104230	0.152860
C2091	C209	0.248220	0.054740	0.138340
C2101	C210	0.271840	0.012480	0.134800
H1391	H139	0.304400	0.006300	0.143400
H1401	H140	0.270400	0.167100	0.270400
O1411	O141	0.804490	0.607910	0.168950
O1421	O142	0.733000	0.637700	0.147130
C2111	C211	0.762110	0.604230	0.152860
C2121	C212	0.748220	0.554740	0.138340
C2131	C213	0.771840	0.512480	0.134800
H1411	H141	0.804400	0.506300	0.143400
H1421	H142	0.770400	0.667100	0.270400
O1431	O143	0.804490	0.107910	0.668950
O1441	O144	0.733000	0.137700	0.647130
C2141	C214	0.762110	0.104230	0.652860
C2151	C215	0.748220	0.054740	0.638340
C2161	C216	0.771840	0.012480	0.634800
H1431	H143	0.804400	0.006300	0.643400
H1441	H144	0.770400	0.167100	0.770400
O1451	O145	0.804490	0.392090	0.831050
O1461	O146	0.733000	0.362300	0.852870
C2171	C217	0.762110	0.395770	0.847140
C2181	C218	0.748220	0.445260	0.861660
C2191	C219	0.771840	0.487520	0.865200
H1451	H145	0.804400	0.493700	0.856600
H1461	H146	0.770400	0.332900	0.729600
O1471	O147	0.804490	0.892090	0.331050
O1481	O148	0.733000	0.862300	0.352870
C2201	C220	0.762110	0.895770	0.347140
C2211	C221	0.748220	0.945260	0.361660
C2221	C222	0.771840	0.987520	0.365200
H1471	H147	0.804400	0.993700	0.356600
H1481	H148	0.770400	0.832900	0.229600
O1491	O149	0.304490	0.392090	0.331050
O1501	O150	0.233000	0.362300	0.352870
C2231	C223	0.262110	0.395770	0.347140
C2241	C224	0.248220	0.445260	0.361660
C2251	C225	0.271840	0.487520	0.365200
H1491	H149	0.304400	0.493700	0.356600
H1501	H150	0.270400	0.332900	0.229600
O1511	O151	0.304490	0.892090	0.831050
O1521	O152	0.233000	0.862300	0.852870
C2261	C226	0.262110	0.895770	0.847140
C2271	C227	0.248220	0.945260	0.861660
C2281	C228	0.271840	0.987520	0.865200
H1511	H151	0.304400	0.993700	0.856600
H1521	H152	0.270400	0.832900	0.729600
O1531	O153	0.695510	0.892090	0.168950
O1541	O154	0.767000	0.862300	0.147130
C2291	C229	0.737890	0.895770	0.152860
C2301	C230	0.751780	0.945260	0.138340
C2311	C231	0.728160	0.987520	0.134800
H1531	H153	0.695600	0.993700	0.143400
H1541	H154	0.729600	0.832900	0.270400
O1551	O155	0.695510	0.392090	0.668950
O1561	O156	0.767000	0.362300	0.647130
C2321	C232	0.737890	0.395770	0.652860
C2331	C233	0.751780	0.445260	0.638340
C2341	C234	0.728160	0.487520	0.634800
H1551	H155	0.695600	0.493700	0.643400
H1561	H156	0.729600	0.332900	0.770400
O1571	O157	0.195510	0.892090	0.668950
O1581	O158	0.267000	0.862300	0.647130
C2351	C235	0.237890	0.895770	0.652860
C2361	C236	0.251780	0.945260	0.638340
C2371	C237	0.228160	0.987520	0.634800
H1571	H157	0.195600	0.993700	0.643400
H1581	H158	0.229600	0.832900	0.770400
O1591	O159	0.195510	0.392090	0.168950
O1601	O160	0.267000	0.362300	0.147130
C2381	C238	0.237890	0.395770	0.152860
C2391	C239	0.251780	0.445260	0.138340
C2401	C240	0.228160	0.487520	0.134800
H1591	H159	0.195600	0.493700	0.143400
H1601	H160	0.229600	0.332900	0.270400
O1611	O161	0.607910	0.668950	0.304490
O1621	O162	0.637700	0.647130	0.233000
C2411	C241	0.604230	0.652860	0.262110
C2421	C242	0.554740	0.638340	0.248220
C2431	C243	0.512480	0.634800	0.271840
H1611	H161	0.506300	0.643400	0.304400
H1621	H162	0.667100	0.770400	0.270400
O1631	O163	0.607910	0.168950	0.804490
O1641	O164	0.637700	0.147130	0.733000
C2441	C244	0.604230	0.152860	0.762110
C2451	C245	0.554740	0.138340	0.748220
C2461	C246	0.512480	0.134800	0.771840
H1631	H163	0.506300	0.143400	0.804400
H1641	H164	0.667100	0.270400	0.770400
O1651	O165	0.107910	0.668950	0.804490
O1661	O166	0.137700	0.647130	0.733000
C2471	C247	0.104230	0.652860	0.762110
C2481	C248	0.054740	0.638340	0.748220
C2491	C249	0.012480	0.634800	0.771840
H1651	H165	0.006300	0.643400	0.804400
H1661	H166	0.167100	0.770400	0.770400
O1671	O167	0.107910	0.168950	0.304490
O1681	O168	0.137700	0.147130	0.233000
C2501	C250	0.104230	0.152860	0.262110
C2511	C251	0.054740	0.138340	0.248220
C2521	C252	0.012480	0.134800	0.271840
H1671	H167	0.006300	0.143400	0.304400
H1681	H168	0.167100	0.270400	0.270400
O1691	O169	0.107910	0.331050	0.195510
O1701	O170	0.137700	0.352870	0.267000
C2531	C253	0.104230	0.347140	0.237890
C2541	C254	0.054740	0.361660	0.251780
C2551	C255	0.012480	0.365200	0.228160
H1691	H169	0.006300	0.356600	0.195600
H1701	H170	0.167100	0.229600	0.229600
O1711	O171	0.107910	0.831050	0.695510
O1721	O172	0.137700	0.852870	0.767000
C2561	C256	0.104230	0.847140	0.737890
C2571	C257	0.054740	0.861660	0.751780
C2581	C258	0.012480	0.865200	0.728160
H1711	H171	0.006300	0.856600	0.695600
H1721	H172	0.167100	0.729600	0.729600
O1731	O173	0.607910	0.331050	0.695510
O1741	O174	0.637700	0.352870	0.767000
C2591	C259	0.604230	0.347140	0.737890
C2601	C260	0.554740	0.361660	0.751780
C2611	C261	0.512480	0.365200	0.728160
H1731	H173	0.506300	0.356600	0.695600
H1741	H174	0.667100	0.229600	0.729600
O1751	O175	0.607910	0.831050	0.195510
O1761	O176	0.637700	0.852870	0.267000
C2621	C262	0.604230	0.847140	0.237890
C2631	C263	0.554740	0.861660	0.251780
C2641	C264	0.512480	0.865200	0.228160
H1751	H175	0.506300	0.856600	0.195600
H1761	H176	0.667100	0.729600	0.229600
O1771	O177	0.892090	0.168950	0.695510
O1781	O178	0.862300	0.147130	0.767000
C2651	C265	0.895770	0.152860	0.737890
C2661	C266	0.945260	0.138340	0.751780
C2671	C267	0.987520	0.134800	0.728160
H1771	H177	0.993700	0.143400	0.695600
H1781	H178	0.832900	0.270400	0.729600
O1791	O179	0.892090	0.668950	0.195510
O1801	O180	0.862300	0.647130	0.267000
C2681	C268	0.895770	0.652860	0.237890
C2691	C269	0.945260	0.638340	0.251780
C2701	C270	0.987520	0.634800	0.228160
H1791	H179	0.993700	0.643400	0.195600
H1801	H180	0.832900	0.770400	0.229600
O1811	O181	0.392090	0.168950	0.195510
O1821	O182	0.362300	0.147130	0.267000
C2711	C271	0.395770	0.152860	0.237890
C2721	C272	0.445260	0.138340	0.251780
C2731	C273	0.487520	0.134800	0.228160
H1811	H181	0.493700	0.143400	0.195600
H1821	H182	0.332900	0.270400	0.229600
O1831	O183	0.392090	0.668950	0.695510
O1841	O184	0.362300	0.647130	0.767000
C2741	C274	0.395770	0.652860	0.737890
C2751	C275	0.445260	0.638340	0.751780
C2761	C276	0.487520	0.634800	0.728160
H1831	H183	0.493700	0.643400	0.695600
H1841	H184	0.332900	0.770400	0.729600
O1851	O185	0.392090	0.831050	0.804490
O1861	O186	0.362300	0.852870	0.733000
C2771	C277	0.395770	0.847140	0.762110
C2781	C278	0.445260	0.861660	0.748220
C2791	C279	0.487520	0.865200	0.771840
H1851	H185	0.493700	0.856600	0.804400
H1861	H186	0.332900	0.729600	0.770400
O1871	O187	0.392090	0.331050	0.304490
O1881	O188	0.362300	0.352870	0.233000
C2801	C280	0.395770	0.347140	0.262110
C2811	C281	0.445260	0.361660	0.248220
C2821	C282	0.487520	0.365200	0.271840
H1871	H187	0.493700	0.356600	0.304400
H1881	H188	0.332900	0.229600	0.270400
O1891	O189	0.892090	0.831050	0.304490
O1901	O190	0.862300	0.852870	0.233000
C2831	C283	0.895770	0.847140	0.262110
C2841	C284	0.945260	0.861660	0.248220
C2851	C285	0.987520	0.865200	0.271840
H1891	H189	0.993700	0.856600	0.304400
H1901	H190	0.832900	0.729600	0.270400
O1911	O191	0.892090	0.331050	0.804490
O1921	O192	0.862300	0.352870	0.733000
C2861	C286	0.895770	0.347140	0.762110
C2871	C287	0.945260	0.361660	0.748220
C2881	C288	0.987520	0.365200	0.771840
H1911	H191	0.993700	0.356600	0.804400
H1921	H192	0.832900	0.229600	0.770400
Zn11	Zn1	0.425200	0.425200	0.925200
N11	N1	0.468760	0.468760	0.968760
Zn21	Zn2	0.925200	0.925200	0.925200
N21	N2	0.968760	0.968760	0.968760
Zn31	Zn3	0.574800	0.074800	0.425200
N31	N3	0.531240	0.031240	0.468760
Zn41	Zn4	0.074800	0.925200	0.074800
N41	N4	0.031240	0.968760	0.031240
Zn51	Zn5	0.074800	0.425200	0.574800
N51	N5	0.031240	0.468760	0.531240
Zn61	Zn6	0.925200	0.574800	0.574800
N61	N6	0.968760	0.531240	0.531240
Zn71	Zn7	0.425200	0.574800	0.074800
N71	N7	0.468760	0.531240	0.031240
Zn81	Zn8	0.925200	0.425200	0.425200
N81	N8	0.968760	0.468760	0.468760
Zn91	Zn9	0.425200	0.074800	0.574800
N91	N9	0.468760	0.031240	0.531240
Zn101	Zn10	0.074800	0.074800	0.925200
N101	N10	0.031240	0.031240	0.968760
Zn111	Zn11	0.074800	0.574800	0.425200
N111	N11	0.031240	0.531240	0.468760
Zn121	Zn12	0.574800	0.925200	0.574800
N121	N12	0.531240	0.968760	0.531240
Zn131	Zn13	0.574800	0.425200	0.074800
N131	N13	0.531240	0.468760	0.031240
Zn141	Zn14	0.425200	0.925200	0.425200
N141	N14	0.468760	0.968760	0.468760
Zn151	Zn15	0.925200	0.074800	0.074800
N151	N15	0.968760	0.031240	0.031240
Zn161	Zn16	0.574800	0.574800	0.925200
N161	N16	0.531240	0.531240	0.968760
Zn171	Zn17	0.175200	0.675200	0.824800
N171	N17	0.218760	0.718760	0.781240
Zn181	Zn18	0.175200	0.175200	0.324800
N181	N18	0.218760	0.218760	0.281240
Zn191	Zn19	0.675200	0.675200	0.324800
N191	N19	0.718760	0.718760	0.281240
Zn201	Zn20	0.824800	0.824800	0.324800
N201	N20	0.781240	0.781240	0.281240
Zn211	Zn21	0.675200	0.324800	0.675200
N211	N21	0.718760	0.281240	0.718760
Zn221	Zn22	0.175200	0.824800	0.675200
N221	N22	0.218760	0.781240	0.718760
Zn231	Zn23	0.324800	0.175200	0.175200
N231	N23	0.281240	0.218760	0.218760
Zn241	Zn24	0.675200	0.175200	0.824800
N241	N24	0.718760	0.218760	0.781240
Zn251	Zn25	0.324800	0.675200	0.675200
N251	N25	0.281240	0.718760	0.718760
Zn261	Zn26	0.824800	0.324800	0.824800
N261	N26	0.781240	0.281240	0.781240
Zn271	Zn27	0.675200	0.824800	0.175200
N271	N27	0.718760	0.781240	0.218760
Zn281	Zn28	0.175200	0.324800	0.175200
N281	N28	0.218760	0.281240	0.218760
Zn291	Zn29	0.824800	0.175200	0.675200
N291	N29	0.781240	0.218760	0.718760
Zn301	Zn30	0.824800	0.675200	0.175200
N301	N30	0.781240	0.718760	0.218760
Zn311	Zn31	0.324800	0.824800	0.824800
N311	N31	0.281240	0.781240	0.781240
Zn321	Zn32	0.324800	0.324800	0.324800
N321	N32	0.281240	0.281240	0.281240
O1931	O193	0.548980	0.375000	0.798980
O1941	O194	0.548980	0.875000	0.298980
O1951	O195	0.048980	0.375000	0.298980
O1961	O196	0.451020	0.125000	0.298980
O1971	O197	0.451020	0.625000	0.798980
O1981	O198	0.951020	0.875000	0.201020
O1991	O199	0.951020	0.375000	0.701020
O2001	O200	0.048980	0.625000	0.701020
O2011	O201	0.048980	0.125000	0.201020
O2021	O202	0.798980	0.548980	0.375000
O2031	O203	0.798980	0.048980	0.875000
O2041	O204	0.298980	0.048980	0.375000
O2051	O205	0.298980	0.451020	0.125000
O2061	O206	0.298980	0.951020	0.625000
O2071	O207	0.201020	0.951020	0.875000
O2081	O208	0.201020	0.451020	0.375000
O2091	O209	0.701020	0.048980	0.625000
O2101	O210	0.701020	0.548980	0.125000
O2111	O211	0.375000	0.798980	0.548980
O2121	O212	0.375000	0.298980	0.048980
O2131	O213	0.875000	0.798980	0.048980
O2141	O214	0.125000	0.298980	0.451020
O2151	O215	0.625000	0.298980	0.951020
O2161	O216	0.875000	0.201020	0.951020
O2171	O217	0.375000	0.201020	0.451020
O2181	O218	0.625000	0.701020	0.048980
O2191	O219	0.125000	0.701020	0.548980
O2201	O220	0.125000	0.798980	0.951020
O2211	O221	0.625000	0.798980	0.451020
O2221	O222	0.875000	0.701020	0.451020
O2231	O223	0.375000	0.701020	0.951020
O2241	O224	0.625000	0.201020	0.548980
O2251	O225	0.125000	0.201020	0.048980
O2261	O226	0.875000	0.298980	0.548980
O2271	O227	0.298980	0.548980	0.875000
O2281	O228	0.201020	0.548980	0.625000
O2291	O229	0.201020	0.048980	0.125000
O2301	O230	0.701020	0.451020	0.875000
O2311	O231	0.701020	0.951020	0.375000
O2321	O232	0.798980	0.951020	0.125000
O2331	O233	0.798980	0.451020	0.625000
O2341	O234	0.548980	0.625000	0.201020
O2351	O235	0.548980	0.125000	0.701020
O2361	O236	0.048980	0.875000	0.798980
O2371	O237	0.951020	0.125000	0.798980
O2381	O238	0.951020	0.625000	0.298980
O2391	O239	0.451020	0.875000	0.701020
O2401	O240	0.451020	0.375000	0.201020
C2891	C289	0.500000	0.500000	0.938040
C2901	C290	0.000000	0.500000	0.438040
C2911	C291	0.500000	0.000000	0.438040
C2921	C292	0.000000	0.000000	0.938040
C2931	C293	0.000000	0.000000	0.061960
C2941	C294	0.500000	0.000000	0.561960
C2951	C295	0.000000	0.500000	0.561960
C2961	C296	0.500000	0.500000	0.061960
C2971	C297	0.938040	0.500000	0.500000
C2981	C298	0.938040	0.000000	0.000000
C2991	C299	0.438040	0.500000	0.000000
C3001	C300	0.438040	0.000000	0.500000
C3011	C301	0.061960	0.000000	0.000000
C3021	C302	0.061960	0.500000	0.500000
C3031	C303	0.561960	0.000000	0.500000
C3041	C304	0.561960	0.500000	0.000000
C3051	C305	0.500000	0.938040	0.500000
C3061	C306	0.500000	0.438040	0.000000
C3071	C307	0.000000	0.438040	0.500000
C3081	C308	0.000000	0.938040	0.000000
C3091	C309	0.000000	0.061960	0.000000
C3101	C310	0.000000	0.561960	0.500000
C3111	C311	0.500000	0.561960	0.000000
C3121	C312	0.500000	0.061960	0.500000
C3131	C313	0.250000	0.750000	0.811960
C3141	C314	0.250000	0.250000	0.311960
C3151	C315	0.750000	0.750000	0.311960
C3161	C316	0.750000	0.250000	0.811960
C3171	C317	0.750000	0.250000	0.688040
C3181	C318	0.750000	0.750000	0.188040
C3191	C319	0.250000	0.250000	0.188040
C3201	C320	0.250000	0.750000	0.688040
C3211	C321	0.250000	0.188040	0.250000
C3221	C322	0.750000	0.188040	0.750000
C3231	C323	0.250000	0.688040	0.750000
C3241	C324	0.750000	0.688040	0.250000
C3251	C325	0.750000	0.311960	0.750000
C3261	C326	0.250000	0.311960	0.250000
C3271	C327	0.750000	0.811960	0.250000
C3281	C328	0.250000	0.811960	0.750000
C3291	C329	0.688040	0.750000	0.250000
C3301	C330	0.688040	0.250000	0.750000
C3311	C331	0.188040	0.250000	0.250000
C3321	C332	0.188040	0.750000	0.750000
C3331	C333	0.811960	0.250000	0.750000
C3341	C334	0.811960	0.750000	0.250000
C3351	C335	0.311960	0.750000	0.750000
C3361	C336	0.311960	0.250000	0.250000
