data_YASPEP_clean_PM
_symmetry_space_group_name_H-M	'P1'
_cell_length_a	6.277000
_cell_length_b	17.702000
_cell_length_c	20.486000
_cell_angle_alpha	90.000000
_cell_angle_beta	97.565000
_cell_angle_gamma	90.000000
_symmetry_Int_Tables_number 1

loop_
_symmetry_equiv_pos_as_xyz
'x,y,z'

loop_
_atom_site_label
_atom_site_type_symbol
_atom_site_fract_x
_atom_site_fract_y
_atom_site_fract_z
Zn11	Zn1	0.189600	0.512750	0.776380
Zn21	Zn2	0.310400	0.012750	0.723620
Zn31	Zn3	0.810400	0.487250	0.223620
Zn41	Zn4	0.689600	0.987250	0.276380
H11	H1	0.017400	0.791000	0.593400
H21	H2	0.233500	0.756900	0.515900
H31	H3	0.564100	0.704700	0.547200
H41	H4	0.683000	0.687000	0.657300
H51	H5	0.656900	0.707000	0.769700
H61	H6	0.468700	0.755900	0.790700
H71	H7	0.090900	0.753500	0.760000
H81	H8	0.932900	0.790600	0.703400
H91	H9	0.735500	0.475300	0.723200
H101	H10	0.509000	0.476900	0.627500
H111	H11	0.964500	0.583800	0.543000
H121	H12	0.178900	0.579700	0.641800
H131	H13	0.653100	0.539900	0.473500
H141	H14	0.471200	0.575300	0.508800
H151	H15	0.017500	0.396900	0.862900
H161	H16	0.813000	0.387700	0.945900
H171	H17	0.700400	0.608400	0.931300
H181	H18	0.918500	0.615500	0.850700
H191	H19	0.660900	0.528900	0.039400
H201	H20	0.619000	0.443400	0.024700
H211	H21	0.482600	0.291000	0.906600
H221	H22	0.266500	0.256900	0.984100
H231	H23	0.935900	0.204700	0.952800
H241	H24	0.817000	0.187000	0.842700
H251	H25	0.843100	0.207000	0.730300
H261	H26	0.031300	0.255900	0.709300
H271	H27	0.409100	0.253500	0.740000
H281	H28	0.567100	0.290600	0.796600
H291	H29	0.764500	0.975300	0.776800
H301	H30	0.991000	0.976900	0.872500
H311	H31	0.535500	0.083800	0.957000
H321	H32	0.321100	0.079700	0.858200
H331	H33	0.846900	0.039900	0.026500
H341	H34	0.028800	0.075300	0.991200
H351	H35	0.482500	0.896900	0.637100
H361	H36	0.687000	0.887700	0.554100
H371	H37	0.799600	0.108400	0.568700
H381	H38	0.581500	0.115500	0.649300
H391	H39	0.839100	0.028900	0.460600
H401	H40	0.881000	0.943400	0.475300
H411	H41	0.982600	0.209000	0.406600
H421	H42	0.766500	0.243100	0.484100
H431	H43	0.435900	0.295300	0.452800
H441	H44	0.317000	0.313000	0.342700
H451	H45	0.343100	0.293000	0.230300
H461	H46	0.531300	0.244100	0.209300
H471	H47	0.909100	0.246500	0.240000
H481	H48	0.067100	0.209400	0.296600
H491	H49	0.264500	0.524700	0.276800
H501	H50	0.491000	0.523100	0.372500
H511	H51	0.035500	0.416200	0.457000
H521	H52	0.821100	0.420300	0.358200
H531	H53	0.346900	0.460100	0.526500
H541	H54	0.528800	0.424700	0.491200
H551	H55	0.982500	0.603100	0.137100
H561	H56	0.187000	0.612300	0.054100
H571	H57	0.299600	0.391600	0.068700
H581	H58	0.081500	0.384500	0.149300
H591	H59	0.339100	0.471100	0.960600
H601	H60	0.381000	0.556600	0.975300
H611	H61	0.517400	0.709000	0.093400
H621	H62	0.733500	0.743100	0.015900
H631	H63	0.064100	0.795300	0.047200
H641	H64	0.183000	0.813000	0.157300
H651	H65	0.156900	0.793000	0.269700
H661	H66	0.968700	0.744100	0.290700
H671	H67	0.590900	0.746500	0.260000
H681	H68	0.432900	0.709400	0.203400
H691	H69	0.235500	0.024700	0.223200
H701	H70	0.009000	0.023100	0.127500
H711	H71	0.464500	0.916200	0.043000
H721	H72	0.678900	0.920300	0.141800
H731	H73	0.153100	0.960100	0.973500
H741	H74	0.971200	0.924700	0.008800
H751	H75	0.517500	0.103100	0.362900
H761	H76	0.313000	0.112300	0.445900
H771	H77	0.200400	0.891600	0.431300
H781	H78	0.418500	0.884500	0.350700
H791	H79	0.160900	0.971100	0.539400
H801	H80	0.119000	0.056600	0.524700
C11	C1	0.422600	0.728900	0.692600
C21	C2	0.220000	0.760900	0.673600
C31	C3	0.152200	0.770300	0.607000
C41	C4	0.281600	0.749600	0.560300
C51	C5	0.477900	0.718700	0.578800
C61	C6	0.548400	0.708300	0.644700
C71	C7	0.502000	0.713200	0.764100
C81	C8	0.398400	0.642400	0.787400
C91	C9	0.081500	0.788900	0.723700
C101	C10	0.146600	0.866000	0.749900
C111	C11	0.782600	0.496700	0.686200
C121	C12	0.645600	0.497700	0.629000
C131	C13	0.709500	0.530100	0.572300
C141	C14	0.914400	0.561000	0.578900
C151	C15	0.043000	0.558000	0.638300
C161	C16	0.564800	0.531800	0.508400
C171	C17	0.955600	0.440400	0.877500
C181	C18	0.832800	0.434600	0.927200
C191	C19	0.737200	0.497700	0.950200
C201	C20	0.768000	0.564900	0.918900
C211	C21	0.896300	0.569000	0.869800
C221	C22	0.600800	0.493600	0.005700
C231	C23	0.077400	0.228900	0.807400
C241	C24	0.280000	0.260900	0.826400
C251	C25	0.347800	0.270300	0.893000
C261	C26	0.218400	0.249600	0.939700
C271	C27	0.022100	0.218700	0.921200
C281	C28	0.951600	0.208300	0.855300
C291	C29	0.998000	0.213200	0.735900
C301	C30	0.101600	0.142400	0.712600
C311	C31	0.418500	0.288900	0.776300
C321	C32	0.353400	0.366000	0.750100
C331	C33	0.717400	0.996700	0.813800
C341	C34	0.854400	0.997700	0.871000
C351	C35	0.790500	0.030100	0.927700
C361	C36	0.585600	0.061000	0.921100
C371	C37	0.457000	0.058000	0.861700
C381	C38	0.935200	0.031800	0.991600
C391	C39	0.544400	0.940400	0.622500
C401	C40	0.667200	0.934600	0.572800
C411	C41	0.762800	0.997700	0.549800
C421	C42	0.732000	0.064900	0.581100
C431	C43	0.603700	0.069000	0.630200
C441	C44	0.899200	0.993600	0.494300
C451	C45	0.577400	0.271100	0.307400
C461	C46	0.780000	0.239100	0.326400
C471	C47	0.847800	0.229700	0.393000
C481	C48	0.718400	0.250400	0.439700
C491	C49	0.522100	0.281300	0.421200
C501	C50	0.451600	0.291700	0.355300
C511	C51	0.498000	0.286800	0.235900
C521	C52	0.601600	0.357600	0.212600
C531	C53	0.918500	0.211100	0.276300
C541	C54	0.853400	0.134000	0.250100
C551	C55	0.217400	0.503300	0.313800
C561	C56	0.354400	0.502300	0.371000
C571	C57	0.290500	0.469900	0.427700
C581	C58	0.085600	0.439000	0.421100
C591	C59	0.957000	0.442000	0.361700
C601	C60	0.435200	0.468200	0.491600
C611	C61	0.044400	0.559600	0.122500
C621	C62	0.167200	0.565400	0.072800
C631	C63	0.262800	0.502300	0.049800
C641	C64	0.232000	0.435100	0.081100
C651	C65	0.103700	0.431000	0.130200
C661	C66	0.399200	0.506400	0.994300
C671	C67	0.922600	0.771100	0.192600
C681	C68	0.720000	0.739100	0.173600
C691	C69	0.652200	0.729700	0.107000
C701	C70	0.781600	0.750400	0.060300
C711	C71	0.977900	0.781300	0.078800
C721	C72	0.048400	0.791700	0.144700
C731	C73	0.002000	0.786800	0.264100
C741	C74	0.898400	0.857600	0.287400
C751	C75	0.581500	0.711100	0.223700
C761	C76	0.646600	0.634000	0.249900
C771	C77	0.282600	0.003300	0.186200
C781	C78	0.145600	0.002300	0.129000
C791	C79	0.209500	0.969900	0.072300
C801	C80	0.414400	0.939000	0.078900
C811	C81	0.543000	0.942000	0.138300
C821	C82	0.064800	0.968200	0.008400
C831	C83	0.455600	0.059600	0.377500
C841	C84	0.332800	0.065400	0.427200
C851	C85	0.237200	0.002300	0.450200
C861	C86	0.268000	0.935100	0.418900
C871	C87	0.396300	0.931000	0.369800
C881	C88	0.100800	0.006400	0.505700
N11	N1	0.981100	0.524900	0.691700
N21	N2	0.991000	0.506900	0.848600
N31	N3	0.518900	0.024900	0.808300
N41	N4	0.509000	0.006900	0.651400
N51	N5	0.018900	0.475100	0.308300
N61	N6	0.009000	0.493100	0.151400
N71	N7	0.481100	0.975100	0.191700
N81	N8	0.491000	0.993100	0.348600
O11	O1	0.412200	0.583700	0.755200
O21	O2	0.301300	0.642900	0.834300
O31	O3	0.188600	0.913500	0.707200
O41	O4	0.156900	0.880600	0.809300
O51	O5	0.087800	0.083700	0.744800
O61	O6	0.198700	0.142900	0.665700
O71	O7	0.311400	0.413500	0.792800
O81	O8	0.343100	0.380600	0.690700
O91	O9	0.587800	0.416300	0.244800
O101	O10	0.698700	0.357100	0.165700
O111	O11	0.811400	0.086500	0.292800
O121	O12	0.843100	0.119400	0.190700
O131	O13	0.912200	0.916300	0.255200
O141	O14	0.801300	0.857100	0.334300
O151	O15	0.688600	0.586500	0.207200
O161	O16	0.656900	0.619400	0.309300
