data_YAVSOG_clean_PM
_symmetry_space_group_name_H-M	'P1'
_cell_length_a	20.016400
_cell_length_b	7.397200
_cell_length_c	25.712000
_cell_angle_alpha	90.000000
_cell_angle_beta	105.093000
_cell_angle_gamma	90.000000
_symmetry_Int_Tables_number 1

loop_
_symmetry_equiv_pos_as_xyz
'x,y,z'

loop_
_atom_site_label
_atom_site_type_symbol
_atom_site_fract_x
_atom_site_fract_y
_atom_site_fract_z
C11	C1	0.074030	0.976040	0.096080
H11	H1	0.056500	0.859700	0.088900
C21	C2	0.209450	0.959830	0.478470
C31	C3	0.149770	0.188150	0.156790
C41	C4	0.141170	0.856320	0.182210
C51	C5	0.121490	0.010630	0.144910
C61	C6	0.222690	0.997400	0.429140
H21	H2	0.245700	0.912800	0.413400
C71	C7	0.201750	0.161030	0.403150
C81	C8	0.052090	0.109310	0.057860
C91	C9	0.124890	0.321400	0.117650
H31	H3	0.141000	0.439200	0.124400
C101	C10	0.077740	0.284150	0.069900
H41	H4	0.062600	0.376500	0.045100
C111	C11	0.152460	0.246210	0.476400
H51	H5	0.128100	0.327800	0.492000
C121	C12	0.216310	0.200750	0.350330
C131	C13	0.167240	0.287420	0.428010
C141	C14	0.174040	0.084170	0.501230
H61	H6	0.164600	0.057700	0.534000
Ce11	Ce1	0.202610	0.537160	0.248940
H71	H7	0.160400	0.466100	0.377000
N11	N1	0.230720	0.799190	0.508860
N21	N2	0.006920	0.081000	0.005710
O11	O1	0.197000	0.230330	0.201920
O21	O2	0.191100	0.869420	0.224450
O31	O3	0.109870	0.708130	0.172970
O41	O4	0.205350	0.360100	0.332460
O51	O5	0.237980	0.076310	0.325810
O61	O6	0.147940	0.451760	0.406000
C151	C15	0.574030	0.476040	0.096080
H81	H8	0.556500	0.359700	0.088900
C161	C16	0.709450	0.459830	0.478470
C171	C17	0.649770	0.688150	0.156790
C181	C18	0.641170	0.356320	0.182210
C191	C19	0.621490	0.510630	0.144910
C201	C20	0.722690	0.497400	0.429140
H91	H9	0.745700	0.412800	0.413400
C211	C21	0.701750	0.661030	0.403150
C221	C22	0.552090	0.609310	0.057860
C231	C23	0.624890	0.821400	0.117650
H101	H10	0.641000	0.939200	0.124400
C241	C24	0.577740	0.784150	0.069900
H111	H11	0.562600	0.876500	0.045100
C251	C25	0.652460	0.746210	0.476400
H121	H12	0.628100	0.827800	0.492000
C261	C26	0.716310	0.700750	0.350330
C271	C27	0.667240	0.787420	0.428010
C281	C28	0.674040	0.584170	0.501230
H131	H13	0.664600	0.557700	0.534000
Ce21	Ce2	0.702610	0.037160	0.248940
H141	H14	0.660400	0.966100	0.377000
N31	N3	0.730720	0.299190	0.508860
N41	N4	0.506920	0.581000	0.005710
O71	O7	0.697000	0.730330	0.201920
O81	O8	0.691100	0.369420	0.224450
O91	O9	0.609870	0.208130	0.172970
O101	O10	0.705350	0.860100	0.332460
O111	O11	0.737980	0.576310	0.325810
O121	O12	0.647940	0.951760	0.406000
C291	C29	0.925970	0.976040	0.403920
H151	H15	0.943500	0.859700	0.411100
C301	C30	0.790550	0.959830	0.021530
C311	C31	0.850230	0.188150	0.343210
C321	C32	0.858830	0.856320	0.317790
C331	C33	0.878510	0.010630	0.355090
C341	C34	0.777310	0.997400	0.070860
H161	H16	0.754300	0.912800	0.086600
C351	C35	0.798250	0.161030	0.096850
C361	C36	0.947910	0.109310	0.442140
C371	C37	0.875110	0.321400	0.382350
H171	H17	0.859000	0.439200	0.375600
C381	C38	0.922260	0.284150	0.430100
H181	H18	0.937400	0.376500	0.454900
C391	C39	0.847540	0.246210	0.023600
H191	H19	0.871900	0.327800	0.008000
C401	C40	0.783690	0.200750	0.149670
C411	C41	0.832760	0.287420	0.071990
C421	C42	0.825960	0.084170	0.998770
H201	H20	0.835400	0.057700	0.966000
Ce31	Ce3	0.797390	0.537160	0.251060
H211	H21	0.839600	0.466100	0.123000
N51	N5	0.769280	0.799190	0.991140
N61	N6	0.993080	0.081000	0.494290
O131	O13	0.803000	0.230330	0.298080
O141	O14	0.808900	0.869420	0.275550
O151	O15	0.890130	0.708130	0.327030
O161	O16	0.794650	0.360100	0.167540
O171	O17	0.762020	0.076310	0.174190
O181	O18	0.852060	0.451760	0.094000
C431	C43	0.425970	0.476040	0.403920
H221	H22	0.443500	0.359700	0.411100
C441	C44	0.290550	0.459830	0.021530
C451	C45	0.350230	0.688150	0.343210
C461	C46	0.358830	0.356320	0.317790
C471	C47	0.378510	0.510630	0.355090
C481	C48	0.277310	0.497400	0.070860
H231	H23	0.254300	0.412800	0.086600
C491	C49	0.298250	0.661030	0.096850
C501	C50	0.447910	0.609310	0.442140
C511	C51	0.375110	0.821400	0.382350
H241	H24	0.359000	0.939200	0.375600
C521	C52	0.422260	0.784150	0.430100
H251	H25	0.437400	0.876500	0.454900
C531	C53	0.347540	0.746210	0.023600
H261	H26	0.371900	0.827800	0.008000
C541	C54	0.283690	0.700750	0.149670
C551	C55	0.332760	0.787420	0.071990
C561	C56	0.325960	0.584170	0.998770
H271	H27	0.335400	0.557700	0.966000
Ce41	Ce4	0.297390	0.037160	0.251060
H281	H28	0.339600	0.966100	0.123000
N71	N7	0.269280	0.299190	0.991140
N81	N8	0.493080	0.581000	0.494290
O191	O19	0.303000	0.730330	0.298080
O201	O20	0.308900	0.369420	0.275550
O211	O21	0.390130	0.208130	0.327030
O221	O22	0.294650	0.860100	0.167540
O231	O23	0.262020	0.576310	0.174190
O241	O24	0.352060	0.951760	0.094000
C571	C57	0.925970	0.023960	0.903920
H291	H29	0.943500	0.140300	0.911100
C581	C58	0.790550	0.040170	0.521530
C591	C59	0.850230	0.811850	0.843210
C601	C60	0.858830	0.143680	0.817790
C611	C61	0.878510	0.989370	0.855090
C621	C62	0.777310	0.002600	0.570860
H301	H30	0.754300	0.087200	0.586600
C631	C63	0.798250	0.838970	0.596850
C641	C64	0.947910	0.890690	0.942140
C651	C65	0.875110	0.678600	0.882350
H311	H31	0.859000	0.560800	0.875600
C661	C66	0.922260	0.715850	0.930100
H321	H32	0.937400	0.623500	0.954900
C671	C67	0.847540	0.753790	0.523600
H331	H33	0.871900	0.672200	0.508000
C681	C68	0.783690	0.799250	0.649670
C691	C69	0.832760	0.712580	0.571990
C701	C70	0.825960	0.915830	0.498770
H341	H34	0.835400	0.942300	0.466000
Ce51	Ce5	0.797390	0.462840	0.751060
H351	H35	0.839600	0.533900	0.623000
N91	N9	0.769280	0.200810	0.491140
N101	N10	0.993080	0.919000	0.994290
O251	O25	0.803000	0.769670	0.798080
O261	O26	0.808900	0.130580	0.775550
O271	O27	0.890130	0.291870	0.827030
O281	O28	0.794650	0.639900	0.667540
O291	O29	0.762020	0.923690	0.674190
O301	O30	0.852060	0.548240	0.594000
C711	C71	0.425970	0.523960	0.903920
H361	H36	0.443500	0.640300	0.911100
C721	C72	0.290550	0.540170	0.521530
C731	C73	0.350230	0.311850	0.843210
C741	C74	0.358830	0.643680	0.817790
C751	C75	0.378510	0.489370	0.855090
C761	C76	0.277310	0.502600	0.570860
H371	H37	0.254300	0.587200	0.586600
C771	C77	0.298250	0.338970	0.596850
C781	C78	0.447910	0.390690	0.942140
C791	C79	0.375110	0.178600	0.882350
H381	H38	0.359000	0.060800	0.875600
C801	C80	0.422260	0.215850	0.930100
H391	H39	0.437400	0.123500	0.954900
C811	C81	0.347540	0.253790	0.523600
H401	H40	0.371900	0.172200	0.508000
C821	C82	0.283690	0.299250	0.649670
C831	C83	0.332760	0.212580	0.571990
C841	C84	0.325960	0.415830	0.498770
H411	H41	0.335400	0.442300	0.466000
Ce61	Ce6	0.297390	0.962840	0.751060
H421	H42	0.339600	0.033900	0.623000
N111	N11	0.269280	0.700810	0.491140
N121	N12	0.493080	0.419000	0.994290
O311	O31	0.303000	0.269670	0.798080
O321	O32	0.308900	0.630580	0.775550
O331	O33	0.390130	0.791870	0.827030
O341	O34	0.294650	0.139900	0.667540
O351	O35	0.262020	0.423690	0.674190
O361	O36	0.352060	0.048240	0.594000
C851	C85	0.074030	0.023960	0.596080
H431	H43	0.056500	0.140300	0.588900
C861	C86	0.209450	0.040170	0.978470
C871	C87	0.149770	0.811850	0.656790
C881	C88	0.141170	0.143680	0.682210
C891	C89	0.121490	0.989370	0.644910
C901	C90	0.222690	0.002600	0.929140
H441	H44	0.245700	0.087200	0.913400
C911	C91	0.201750	0.838970	0.903150
C921	C92	0.052090	0.890690	0.557860
C931	C93	0.124890	0.678600	0.617650
H451	H45	0.141000	0.560800	0.624400
C941	C94	0.077740	0.715850	0.569900
H461	H46	0.062600	0.623500	0.545100
C951	C95	0.152460	0.753790	0.976400
H471	H47	0.128100	0.672200	0.992000
C961	C96	0.216310	0.799250	0.850330
C971	C97	0.167240	0.712580	0.928010
C981	C98	0.174040	0.915830	0.001230
H481	H48	0.164600	0.942300	0.034000
Ce71	Ce7	0.202610	0.462840	0.748940
H491	H49	0.160400	0.533900	0.877000
N131	N13	0.230720	0.200810	0.008860
N141	N14	0.006920	0.919000	0.505710
O371	O37	0.197000	0.769670	0.701920
O381	O38	0.191100	0.130580	0.724450
O391	O39	0.109870	0.291870	0.672970
O401	O40	0.205350	0.639900	0.832460
O411	O41	0.237980	0.923690	0.825810
O421	O42	0.147940	0.548240	0.906000
C991	C99	0.574030	0.523960	0.596080
H501	H50	0.556500	0.640300	0.588900
C1001	C100	0.709450	0.540170	0.978470
C1011	C101	0.649770	0.311850	0.656790
C1021	C102	0.641170	0.643680	0.682210
C1031	C103	0.621490	0.489370	0.644910
C1041	C104	0.722690	0.502600	0.929140
H511	H51	0.745700	0.587200	0.913400
C1051	C105	0.701750	0.338970	0.903150
C1061	C106	0.552090	0.390690	0.557860
C1071	C107	0.624890	0.178600	0.617650
H521	H52	0.641000	0.060800	0.624400
C1081	C108	0.577740	0.215850	0.569900
H531	H53	0.562600	0.123500	0.545100
C1091	C109	0.652460	0.253790	0.976400
H541	H54	0.628100	0.172200	0.992000
C1101	C110	0.716310	0.299250	0.850330
C1111	C111	0.667240	0.212580	0.928010
C1121	C112	0.674040	0.415830	0.001230
H551	H55	0.664600	0.442300	0.034000
Ce81	Ce8	0.702610	0.962840	0.748940
H561	H56	0.660400	0.033900	0.877000
N151	N15	0.730720	0.700810	0.008860
N161	N16	0.506920	0.419000	0.505710
O431	O43	0.697000	0.269670	0.701920
O441	O44	0.691100	0.630580	0.724450
O451	O45	0.609870	0.791870	0.672970
O461	O46	0.705350	0.139900	0.832460
O471	O47	0.737980	0.423690	0.825810
O481	O48	0.647940	0.048240	0.906000
