data_YAVVID_clean_PM
_symmetry_space_group_name_H-M	'P1'
_cell_length_a	8.818100
_cell_length_b	8.787900
_cell_length_c	27.538700
_cell_angle_alpha	90.000000
_cell_angle_beta	102.183000
_cell_angle_gamma	90.000000
_symmetry_Int_Tables_number 1

loop_
_symmetry_equiv_pos_as_xyz
'x,y,z'

loop_
_atom_site_label
_atom_site_type_symbol
_atom_site_fract_x
_atom_site_fract_y
_atom_site_fract_z
C11	C1	0.559900	0.252900	0.664860
C21	C2	0.583800	0.272900	0.613490
C31	C3	0.537200	0.159500	0.578710
H11	H1	0.488100	0.073200	0.587500
C41	C4	0.563000	0.173200	0.530880
C51	C5	0.632200	0.304300	0.517860
H21	H2	0.647300	0.315300	0.485600
C61	C6	0.678700	0.417700	0.551770
H31	H3	0.725800	0.504700	0.542500
C71	C7	0.655800	0.403500	0.599680
C81	C8	0.342500	0.687300	0.675070
C91	C9	0.257100	0.564900	0.643930
C101	C10	0.236400	0.416700	0.661780
C111	C11	0.154900	0.310800	0.627690
H41	H4	0.143600	0.211900	0.638400
C121	C12	0.091900	0.347400	0.579550
H51	H5	0.040000	0.273800	0.558000
C131	C13	0.105400	0.496100	0.562430
C141	C14	0.189100	0.600600	0.594500
H61	H6	0.201000	0.698400	0.583000
Gd11	Gd1	0.503850	0.438280	0.766810
H71	H7	0.670000	0.500000	0.657900
N11	N1	0.524200	0.061200	0.493150
N21	N2	0.037800	0.549100	0.514220
O11	O1	0.499400	0.132400	0.675570
O21	O2	0.335100	0.821300	0.659270
O31	O3	0.601300	0.362000	0.695620
O41	O4	0.283700	0.376700	0.708750
O51	O5	0.426000	0.659400	0.717980
O61	O6	0.705000	0.517000	0.632100
C151	C15	0.440100	0.752900	0.835140
C161	C16	0.416200	0.772900	0.886510
C171	C17	0.462800	0.659500	0.921290
H81	H8	0.511900	0.573200	0.912500
C181	C18	0.437000	0.673200	0.969120
C191	C19	0.367800	0.804300	0.982140
H91	H9	0.352700	0.815300	0.014400
C201	C20	0.321300	0.917700	0.948230
H101	H10	0.274200	0.004700	0.957500
C211	C21	0.344200	0.903500	0.900320
C221	C22	0.657500	0.187300	0.824930
C231	C23	0.742900	0.064900	0.856070
C241	C24	0.763600	0.916700	0.838220
C251	C25	0.845100	0.810800	0.872310
H111	H11	0.856400	0.711900	0.861600
C261	C26	0.908100	0.847400	0.920450
H121	H12	0.960000	0.773800	0.942000
C271	C27	0.894600	0.996100	0.937570
C281	C28	0.810900	0.100600	0.905500
H131	H13	0.799000	0.198400	0.917000
Gd21	Gd2	0.496150	0.938280	0.733190
H141	H14	0.330000	0.000000	0.842100
N31	N3	0.475800	0.561200	0.006850
N41	N4	0.962200	0.049100	0.985780
O71	O7	0.500600	0.632400	0.824430
O81	O8	0.664900	0.321300	0.840730
O91	O9	0.398700	0.862000	0.804380
O101	O10	0.716300	0.876700	0.791250
O111	O11	0.574000	0.159400	0.782020
O121	O12	0.295000	0.017000	0.867900
C291	C29	0.440100	0.747100	0.335140
C301	C30	0.416200	0.727100	0.386510
C311	C31	0.462800	0.840500	0.421290
H151	H15	0.511900	0.926800	0.412500
C321	C32	0.437000	0.826800	0.469120
C331	C33	0.367800	0.695700	0.482140
H161	H16	0.352700	0.684700	0.514400
C341	C34	0.321300	0.582300	0.448230
H171	H17	0.274200	0.495300	0.457500
C351	C35	0.344200	0.596500	0.400320
C361	C36	0.657500	0.312700	0.324930
C371	C37	0.742900	0.435100	0.356070
C381	C38	0.763600	0.583300	0.338220
C391	C39	0.845100	0.689200	0.372310
H181	H18	0.856400	0.788100	0.361600
C401	C40	0.908100	0.652600	0.420450
H191	H19	0.960000	0.726200	0.442000
C411	C41	0.894600	0.503900	0.437570
C421	C42	0.810900	0.399400	0.405500
H201	H20	0.799000	0.301600	0.417000
Gd31	Gd3	0.496150	0.561710	0.233190
H211	H21	0.330000	0.500000	0.342100
N51	N5	0.475800	0.938800	0.506850
N61	N6	0.962200	0.450900	0.485780
O131	O13	0.500600	0.867600	0.324430
O141	O14	0.664900	0.178700	0.340730
O151	O15	0.398700	0.638000	0.304380
O161	O16	0.716300	0.623300	0.291250
O171	O17	0.574000	0.340600	0.282020
O181	O18	0.295000	0.483000	0.367900
C431	C43	0.559900	0.247100	0.164860
C441	C44	0.583800	0.227100	0.113490
C451	C45	0.537200	0.340500	0.078710
H221	H22	0.488100	0.426800	0.087500
C461	C46	0.563000	0.326800	0.030880
C471	C47	0.632200	0.195700	0.017860
H231	H23	0.647300	0.184700	0.985600
C481	C48	0.678700	0.082300	0.051770
H241	H24	0.725800	0.995300	0.042500
C491	C49	0.655800	0.096500	0.099680
C501	C50	0.342500	0.812700	0.175070
C511	C51	0.257100	0.935100	0.143930
C521	C52	0.236400	0.083300	0.161780
C531	C53	0.154900	0.189200	0.127690
H251	H25	0.143600	0.288100	0.138400
C541	C54	0.091900	0.152600	0.079550
H261	H26	0.040000	0.226200	0.058000
C551	C55	0.105400	0.003900	0.062430
C561	C56	0.189100	0.899400	0.094500
H271	H27	0.201000	0.801600	0.083000
Gd41	Gd4	0.503850	0.061720	0.266810
H281	H28	0.670000	0.000000	0.157900
N71	N7	0.524200	0.438800	0.993150
N81	N8	0.037800	0.950900	0.014220
O191	O19	0.499400	0.367600	0.175570
O201	O20	0.335100	0.678700	0.159270
O211	O21	0.601300	0.138000	0.195620
O221	O22	0.283700	0.123300	0.208750
O231	O23	0.426000	0.840600	0.217980
O241	O24	0.705000	0.983000	0.132100
