data_YAVVUP_clean_PM
_symmetry_space_group_name_H-M	'P1'
_cell_length_a	8.752500
_cell_length_b	8.749200
_cell_length_c	27.498000
_cell_angle_alpha	90.000000
_cell_angle_beta	102.074000
_cell_angle_gamma	90.000000
_symmetry_Int_Tables_number 1

loop_
_symmetry_equiv_pos_as_xyz
'x,y,z'

loop_
_atom_site_label
_atom_site_type_symbol
_atom_site_fract_x
_atom_site_fract_y
_atom_site_fract_z
Dy11	Dy1	0.496680	0.063720	0.233490
O11	O1	0.571300	0.843000	0.281490
O21	O2	0.398200	0.141200	0.303230
O31	O3	0.713900	0.126200	0.291120
O41	O4	0.501100	0.872100	0.176200
O51	O5	0.337300	0.178600	0.160250
C11	C1	0.655600	0.814100	0.324570
C21	C2	0.439800	0.249900	0.334210
C31	C3	0.762500	0.084900	0.338030
C41	C4	0.741500	0.936200	0.355880
C51	C5	0.415800	0.228300	0.385790
C61	C6	0.844400	0.191200	0.372300
C71	C7	0.809600	0.899800	0.405280
C81	C8	0.343700	0.096100	0.399270
C91	C9	0.463100	0.340900	0.420940
H11	H1	0.855400	0.290800	0.361700
C101	C10	0.908000	0.154100	0.420250
C111	C11	0.893700	0.004400	0.437700
H21	H2	0.797500	0.801300	0.416600
C121	C12	0.322500	0.081000	0.447550
O61	O6	0.294500	0.982400	0.366670
C131	C13	0.436700	0.326200	0.468680
H31	H3	0.513200	0.427600	0.412500
H41	H4	0.961200	0.227800	0.441700
N11	N1	0.962200	0.950800	0.485720
H51	H5	0.276500	0.992800	0.456800
C141	C14	0.368300	0.193800	0.481600
H61	H6	0.324000	0.000000	0.339900
N21	N2	0.476000	0.438400	0.506880
H71	H7	0.353500	0.181700	0.513900
Dy21	Dy2	0.503320	0.563720	0.266510
O71	O7	0.428700	0.343000	0.218510
O81	O8	0.601800	0.641200	0.196770
O91	O9	0.286100	0.626200	0.208880
O101	O10	0.498900	0.372100	0.323800
O111	O11	0.662700	0.678600	0.339750
C151	C15	0.344400	0.314100	0.175430
C161	C16	0.560200	0.749900	0.165790
C171	C17	0.237500	0.584900	0.161970
C181	C18	0.258500	0.436200	0.144120
C191	C19	0.584200	0.728300	0.114210
C201	C20	0.155600	0.691200	0.127700
C211	C21	0.190400	0.399800	0.094720
C221	C22	0.656300	0.596100	0.100730
C231	C23	0.536900	0.840900	0.079060
H81	H8	0.144600	0.790800	0.138300
C241	C24	0.092000	0.654100	0.079750
C251	C25	0.106300	0.504400	0.062300
H91	H9	0.202500	0.301300	0.083400
C261	C26	0.677500	0.581000	0.052450
O121	O12	0.705500	0.482400	0.133330
C271	C27	0.563300	0.826200	0.031320
H101	H10	0.486800	0.927600	0.087500
H111	H11	0.038800	0.727800	0.058300
N31	N3	0.037800	0.450800	0.014280
H121	H12	0.723500	0.492800	0.043200
C281	C28	0.631700	0.693800	0.018400
H131	H13	0.676000	0.500000	0.160100
N41	N4	0.524000	0.938400	0.993120
H141	H14	0.646500	0.681700	0.986100
Dy31	Dy3	0.503320	0.936280	0.766510
O131	O13	0.428700	0.157000	0.718510
O141	O14	0.601800	0.858800	0.696770
O151	O15	0.286100	0.873800	0.708880
O161	O16	0.498900	0.127900	0.823800
O171	O17	0.662700	0.821400	0.839750
C291	C29	0.344400	0.185900	0.675430
C301	C30	0.560200	0.750100	0.665790
C311	C31	0.237500	0.915100	0.661970
C321	C32	0.258500	0.063800	0.644120
C331	C33	0.584200	0.771700	0.614210
C341	C34	0.155600	0.808800	0.627700
C351	C35	0.190400	0.100200	0.594720
C361	C36	0.656300	0.903900	0.600730
C371	C37	0.536900	0.659100	0.579060
H151	H15	0.144600	0.709200	0.638300
C381	C38	0.092000	0.845900	0.579750
C391	C39	0.106300	0.995600	0.562300
H161	H16	0.202500	0.198700	0.583400
C401	C40	0.677500	0.919000	0.552450
O181	O18	0.705500	0.017600	0.633330
C411	C41	0.563300	0.673800	0.531320
H171	H17	0.486800	0.572400	0.587500
H181	H18	0.038800	0.772200	0.558300
N51	N5	0.037800	0.049200	0.514280
H191	H19	0.723500	0.007200	0.543200
C421	C42	0.631700	0.806200	0.518400
H201	H20	0.676000	0.000000	0.660100
N61	N6	0.524000	0.561600	0.493120
H211	H21	0.646500	0.818300	0.486100
Dy41	Dy4	0.496680	0.436280	0.733490
O191	O19	0.571300	0.657000	0.781490
O201	O20	0.398200	0.358800	0.803230
O211	O21	0.713900	0.373800	0.791120
O221	O22	0.501100	0.627900	0.676200
O231	O23	0.337300	0.321400	0.660250
C431	C43	0.655600	0.685900	0.824570
C441	C44	0.439800	0.250100	0.834210
C451	C45	0.762500	0.415100	0.838030
C461	C46	0.741500	0.563800	0.855880
C471	C47	0.415800	0.271700	0.885790
C481	C48	0.844400	0.308800	0.872300
C491	C49	0.809600	0.600200	0.905280
C501	C50	0.343700	0.403900	0.899270
C511	C51	0.463100	0.159100	0.920940
H221	H22	0.855400	0.209200	0.861700
C521	C52	0.908000	0.345900	0.920250
C531	C53	0.893700	0.495600	0.937700
H231	H23	0.797500	0.698700	0.916600
C541	C54	0.322500	0.419000	0.947550
O241	O24	0.294500	0.517600	0.866670
C551	C55	0.436700	0.173800	0.968680
H241	H24	0.513200	0.072400	0.912500
H251	H25	0.961200	0.272200	0.941700
N71	N7	0.962200	0.549200	0.985720
H261	H26	0.276500	0.507200	0.956800
C561	C56	0.368300	0.306200	0.981600
H271	H27	0.324000	0.500000	0.839900
N81	N8	0.476000	0.061600	0.006880
H281	H28	0.353500	0.318300	0.013900
