data_YAVWUQ_clean_PM
_symmetry_space_group_name_H-M	'P1'
_cell_length_a	26.976800
_cell_length_b	26.976800
_cell_length_c	39.206000
_cell_angle_alpha	90.000000
_cell_angle_beta	90.000000
_cell_angle_gamma	90.000000
_symmetry_Int_Tables_number 1

loop_
_symmetry_equiv_pos_as_xyz
'x,y,z'

loop_
_atom_site_label
_atom_site_type_symbol
_atom_site_fract_x
_atom_site_fract_y
_atom_site_fract_z
Cu11	Cu1	0.126500	0.247490	0.302120
Cu21	Cu2	0.093320	0.184070	0.349260
O11	O1	0.150240	0.185520	0.281920
O21	O2	0.126340	0.132750	0.322700
O31	O3	0.181930	0.962600	0.317550
O41	O4	0.236470	0.937600	0.278350
O51	O5	0.339320	0.155000	0.035620
O61	O6	0.364120	0.233700	0.035960
O71	O7	0.305280	0.344180	0.126990
O81	O8	0.254080	0.315160	0.167050
O91	O9	0.065950	0.244260	0.369130
O101	O10	0.093830	0.298080	0.330500
O111	O11	0.960540	0.296260	0.463880
O121	O12	0.934720	0.375210	0.464880
O131	O13	0.154050	0.300830	0.267080
N11	N1	0.240220	0.132460	0.181950
H11	H1	0.233800	0.159200	0.193000
N21	N2	0.247600	0.054910	0.168410
N31	N3	0.263700	0.082020	0.141340
N41	N4	0.004100	0.474710	0.332850
C11	C1	0.172000	0.102090	0.276230
C21	C2	0.175580	0.055410	0.290580
H21	H2	0.161500	0.049200	0.311800
C31	C3	0.200490	0.017480	0.273140
C41	C4	0.215370	0.073530	0.226460
C51	C5	0.192320	0.110430	0.244350
H31	H3	0.190300	0.141900	0.234800
C61	C6	0.220130	0.026350	0.241360
H41	H4	0.236500	0.001200	0.229700
C71	C7	0.234000	0.086370	0.192650
C81	C8	0.258300	0.129070	0.150750
C91	C9	0.311810	0.206390	0.079870
C101	C10	0.306590	0.253590	0.093440
H51	H5	0.318600	0.280900	0.081500
C111	C11	0.283300	0.260180	0.125000
C121	C12	0.266750	0.218780	0.142860
H61	H6	0.251300	0.223100	0.163900
C131	C13	0.272820	0.171570	0.130080
C141	C14	0.294760	0.165130	0.098070
H71	H7	0.298000	0.133500	0.088900
C151	C15	0.147140	0.143100	0.295380
C161	C16	0.207090	0.968310	0.290960
C171	C17	0.340580	0.197940	0.047620
C181	C18	0.280310	0.310390	0.140960
C191	C19	0.041300	0.326730	0.374560
C201	C20	0.016660	0.315560	0.404640
H81	H8	0.018600	0.283700	0.413600
C211	C21	0.988910	0.351670	0.421740
C221	C22	0.987100	0.399200	0.408120
H91	H9	0.969800	0.424000	0.419600
C231	C23	0.010520	0.410000	0.377890
C241	C24	0.038070	0.374470	0.360880
H101	H10	0.054200	0.382300	0.340600
C251	C25	0.005810	0.461300	0.364920
C261	C26	0.069460	0.286830	0.356360
C271	C27	0.959680	0.339450	0.452780
Cu31	Cu3	0.873500	0.752510	0.302120
Cu41	Cu4	0.906680	0.815930	0.349260
O141	O14	0.849760	0.814480	0.281920
O151	O15	0.873660	0.867250	0.322700
O161	O16	0.818070	0.037400	0.317550
O171	O17	0.763530	0.062400	0.278350
O181	O18	0.660680	0.845000	0.035620
O191	O19	0.635880	0.766300	0.035960
O201	O20	0.694720	0.655820	0.126990
O211	O21	0.745920	0.684840	0.167050
O221	O22	0.934050	0.755740	0.369130
O231	O23	0.906170	0.701920	0.330500
O241	O24	0.039460	0.703740	0.463880
O251	O25	0.065280	0.624790	0.464880
O261	O26	0.845950	0.699170	0.267080
N51	N5	0.759780	0.867540	0.181950
H111	H11	0.766200	0.840800	0.193000
N61	N6	0.752400	0.945090	0.168410
N71	N7	0.736300	0.917980	0.141340
N81	N8	0.995900	0.525290	0.332850
C281	C28	0.828000	0.897910	0.276230
C291	C29	0.824420	0.944590	0.290580
H121	H12	0.838500	0.950800	0.311800
C301	C30	0.799510	0.982520	0.273140
C311	C31	0.784630	0.926470	0.226460
C321	C32	0.807680	0.889570	0.244350
H131	H13	0.809700	0.858100	0.234800
C331	C33	0.779870	0.973650	0.241360
H141	H14	0.763500	0.998800	0.229700
C341	C34	0.766000	0.913630	0.192650
C351	C35	0.741700	0.870930	0.150750
C361	C36	0.688190	0.793610	0.079870
C371	C37	0.693410	0.746410	0.093440
H151	H15	0.681400	0.719100	0.081500
C381	C38	0.716700	0.739820	0.125000
C391	C39	0.733250	0.781220	0.142860
H161	H16	0.748700	0.776900	0.163900
C401	C40	0.727180	0.828430	0.130080
C411	C41	0.705240	0.834870	0.098070
H171	H17	0.702000	0.866500	0.088900
C421	C42	0.852860	0.856900	0.295380
C431	C43	0.792910	0.031690	0.290960
C441	C44	0.659420	0.802060	0.047620
C451	C45	0.719690	0.689610	0.140960
C461	C46	0.958700	0.673270	0.374560
C471	C47	0.983340	0.684440	0.404640
H181	H18	0.981400	0.716300	0.413600
C481	C48	0.011090	0.648330	0.421740
C491	C49	0.012900	0.600800	0.408120
H191	H19	0.030200	0.576000	0.419600
C501	C50	0.989480	0.590000	0.377890
C511	C51	0.961930	0.625530	0.360880
H201	H20	0.945800	0.617700	0.340600
C521	C52	0.994190	0.538700	0.364920
C531	C53	0.930540	0.713170	0.356360
C541	C54	0.040320	0.660550	0.452780
Cu51	Cu5	0.752510	0.126500	0.302120
Cu61	Cu6	0.815930	0.093320	0.349260
O271	O27	0.814480	0.150240	0.281920
O281	O28	0.867250	0.126340	0.322700
O291	O29	0.037400	0.181930	0.317550
O301	O30	0.062400	0.236470	0.278350
O311	O31	0.845000	0.339320	0.035620
O321	O32	0.766300	0.364120	0.035960
O331	O33	0.655820	0.305280	0.126990
O341	O34	0.684840	0.254080	0.167050
O351	O35	0.755740	0.065950	0.369130
O361	O36	0.701920	0.093830	0.330500
O371	O37	0.703740	0.960540	0.463880
O381	O38	0.624790	0.934720	0.464880
O391	O39	0.699170	0.154050	0.267080
N91	N9	0.867540	0.240220	0.181950
H211	H21	0.840800	0.233800	0.193000
N101	N10	0.945090	0.247600	0.168410
N111	N11	0.917980	0.263700	0.141340
N121	N12	0.525290	0.004100	0.332850
C551	C55	0.897910	0.172000	0.276230
C561	C56	0.944590	0.175580	0.290580
H221	H22	0.950800	0.161500	0.311800
C571	C57	0.982520	0.200490	0.273140
C581	C58	0.926470	0.215370	0.226460
C591	C59	0.889570	0.192320	0.244350
H231	H23	0.858100	0.190300	0.234800
C601	C60	0.973650	0.220130	0.241360
H241	H24	0.998800	0.236500	0.229700
C611	C61	0.913630	0.234000	0.192650
C621	C62	0.870930	0.258300	0.150750
C631	C63	0.793610	0.311810	0.079870
C641	C64	0.746410	0.306590	0.093440
H251	H25	0.719100	0.318600	0.081500
C651	C65	0.739820	0.283300	0.125000
C661	C66	0.781220	0.266750	0.142860
H261	H26	0.776900	0.251300	0.163900
C671	C67	0.828430	0.272820	0.130080
C681	C68	0.834870	0.294760	0.098070
H271	H27	0.866500	0.298000	0.088900
C691	C69	0.856900	0.147140	0.295380
C701	C70	0.031690	0.207090	0.290960
C711	C71	0.802060	0.340580	0.047620
C721	C72	0.689610	0.280310	0.140960
C731	C73	0.673270	0.041300	0.374560
C741	C74	0.684440	0.016660	0.404640
H281	H28	0.716300	0.018600	0.413600
C751	C75	0.648330	0.988910	0.421740
C761	C76	0.600800	0.987100	0.408120
H291	H29	0.576000	0.969800	0.419600
C771	C77	0.590000	0.010520	0.377890
C781	C78	0.625530	0.038070	0.360880
H301	H30	0.617700	0.054200	0.340600
C791	C79	0.538700	0.005810	0.364920
C801	C80	0.713170	0.069460	0.356360
C811	C81	0.660550	0.959680	0.452780
Cu71	Cu7	0.247490	0.873500	0.302120
Cu81	Cu8	0.184070	0.906680	0.349260
O401	O40	0.185520	0.849760	0.281920
O411	O41	0.132750	0.873660	0.322700
O421	O42	0.962600	0.818070	0.317550
O431	O43	0.937600	0.763530	0.278350
O441	O44	0.155000	0.660680	0.035620
O451	O45	0.233700	0.635880	0.035960
O461	O46	0.344180	0.694720	0.126990
O471	O47	0.315160	0.745920	0.167050
O481	O48	0.244260	0.934050	0.369130
O491	O49	0.298080	0.906170	0.330500
O501	O50	0.296260	0.039460	0.463880
O511	O51	0.375210	0.065280	0.464880
O521	O52	0.300830	0.845950	0.267080
N131	N13	0.132460	0.759780	0.181950
H311	H31	0.159200	0.766200	0.193000
N141	N14	0.054910	0.752400	0.168410
N151	N15	0.082020	0.736300	0.141340
N161	N16	0.474710	0.995900	0.332850
C821	C82	0.102090	0.828000	0.276230
C831	C83	0.055410	0.824420	0.290580
H321	H32	0.049200	0.838500	0.311800
C841	C84	0.017480	0.799510	0.273140
C851	C85	0.073530	0.784630	0.226460
C861	C86	0.110430	0.807680	0.244350
H331	H33	0.141900	0.809700	0.234800
C871	C87	0.026350	0.779870	0.241360
H341	H34	0.001200	0.763500	0.229700
C881	C88	0.086370	0.766000	0.192650
C891	C89	0.129070	0.741700	0.150750
C901	C90	0.206390	0.688190	0.079870
C911	C91	0.253590	0.693410	0.093440
H351	H35	0.280900	0.681400	0.081500
C921	C92	0.260180	0.716700	0.125000
C931	C93	0.218780	0.733250	0.142860
H361	H36	0.223100	0.748700	0.163900
C941	C94	0.171570	0.727180	0.130080
C951	C95	0.165130	0.705240	0.098070
H371	H37	0.133500	0.702000	0.088900
C961	C96	0.143100	0.852860	0.295380
C971	C97	0.968310	0.792910	0.290960
C981	C98	0.197940	0.659420	0.047620
C991	C99	0.310390	0.719690	0.140960
C1001	C100	0.326730	0.958700	0.374560
C1011	C101	0.315560	0.983340	0.404640
H381	H38	0.283700	0.981400	0.413600
C1021	C102	0.351670	0.011090	0.421740
C1031	C103	0.399200	0.012900	0.408120
H391	H39	0.424000	0.030200	0.419600
C1041	C104	0.410000	0.989480	0.377890
C1051	C105	0.374470	0.961930	0.360880
H401	H40	0.382300	0.945800	0.340600
C1061	C106	0.461300	0.994190	0.364920
C1071	C107	0.286830	0.930540	0.356360
C1081	C108	0.339450	0.040320	0.452780
Cu91	Cu9	0.373500	0.747490	0.197880
Cu101	Cu10	0.406680	0.684070	0.150740
O531	O53	0.349760	0.685520	0.218080
O541	O54	0.373660	0.632750	0.177300
O551	O55	0.318070	0.462600	0.182450
O561	O56	0.263530	0.437600	0.221650
O571	O57	0.160680	0.655000	0.464380
O581	O58	0.135880	0.733700	0.464040
O591	O59	0.194720	0.844180	0.373010
O601	O60	0.245920	0.815160	0.332950
O611	O61	0.434050	0.744260	0.130870
O621	O62	0.406170	0.798080	0.169500
O631	O63	0.539460	0.796260	0.036120
O641	O64	0.565280	0.875210	0.035120
O651	O65	0.345950	0.800830	0.232920
N171	N17	0.259780	0.632460	0.318050
H411	H41	0.266200	0.659200	0.307000
N181	N18	0.252400	0.554910	0.331590
N191	N19	0.236300	0.582020	0.358660
N201	N20	0.495900	0.974710	0.167150
C1091	C109	0.328000	0.602090	0.223770
C1101	C110	0.324420	0.555410	0.209420
H421	H42	0.338500	0.549200	0.188200
C1111	C111	0.299510	0.517480	0.226860
C1121	C112	0.284630	0.573530	0.273540
C1131	C113	0.307680	0.610430	0.255650
H431	H43	0.309700	0.641900	0.265200
C1141	C114	0.279870	0.526350	0.258640
H441	H44	0.263500	0.501200	0.270300
C1151	C115	0.266000	0.586370	0.307350
C1161	C116	0.241700	0.629070	0.349250
C1171	C117	0.188190	0.706390	0.420130
C1181	C118	0.193410	0.753590	0.406560
H451	H45	0.181400	0.780900	0.418500
C1191	C119	0.216700	0.760180	0.375000
C1201	C120	0.233250	0.718780	0.357140
H461	H46	0.248700	0.723100	0.336100
C1211	C121	0.227180	0.671570	0.369920
C1221	C122	0.205240	0.665130	0.401930
H471	H47	0.202000	0.633500	0.411100
C1231	C123	0.352860	0.643100	0.204620
C1241	C124	0.292910	0.468310	0.209040
C1251	C125	0.159420	0.697940	0.452380
C1261	C126	0.219690	0.810390	0.359040
C1271	C127	0.458700	0.826730	0.125440
C1281	C128	0.483340	0.815560	0.095360
H481	H48	0.481400	0.783700	0.086400
C1291	C129	0.511090	0.851670	0.078260
C1301	C130	0.512900	0.899200	0.091880
H491	H49	0.530200	0.924000	0.080400
C1311	C131	0.489480	0.910000	0.122110
C1321	C132	0.461930	0.874470	0.139120
H501	H50	0.445800	0.882300	0.159400
C1331	C133	0.494190	0.961300	0.135080
C1341	C134	0.430540	0.786830	0.143640
C1351	C135	0.540320	0.839450	0.047220
Cu111	Cu11	0.626500	0.252510	0.197880
Cu121	Cu12	0.593320	0.315930	0.150740
O661	O66	0.650240	0.314480	0.218080
O671	O67	0.626340	0.367250	0.177300
O681	O68	0.681930	0.537400	0.182450
O691	O69	0.736470	0.562400	0.221650
O701	O70	0.839320	0.345000	0.464380
O711	O71	0.864120	0.266300	0.464040
O721	O72	0.805280	0.155820	0.373010
O731	O73	0.754080	0.184840	0.332950
O741	O74	0.565950	0.255740	0.130870
O751	O75	0.593830	0.201920	0.169500
O761	O76	0.460540	0.203740	0.036120
O771	O77	0.434720	0.124790	0.035120
O781	O78	0.654050	0.199170	0.232920
N211	N21	0.740220	0.367540	0.318050
H511	H51	0.733800	0.340800	0.307000
N221	N22	0.747600	0.445090	0.331590
N231	N23	0.763700	0.417980	0.358660
N241	N24	0.504100	0.025290	0.167150
C1361	C136	0.672000	0.397910	0.223770
C1371	C137	0.675580	0.444590	0.209420
H521	H52	0.661500	0.450800	0.188200
C1381	C138	0.700490	0.482520	0.226860
C1391	C139	0.715370	0.426470	0.273540
C1401	C140	0.692320	0.389570	0.255650
H531	H53	0.690300	0.358100	0.265200
C1411	C141	0.720130	0.473650	0.258640
H541	H54	0.736500	0.498800	0.270300
C1421	C142	0.734000	0.413630	0.307350
C1431	C143	0.758300	0.370930	0.349250
C1441	C144	0.811810	0.293610	0.420130
C1451	C145	0.806590	0.246410	0.406560
H551	H55	0.818600	0.219100	0.418500
C1461	C146	0.783300	0.239820	0.375000
C1471	C147	0.766750	0.281220	0.357140
H561	H56	0.751300	0.276900	0.336100
C1481	C148	0.772820	0.328430	0.369920
C1491	C149	0.794760	0.334870	0.401930
H571	H57	0.798000	0.366500	0.411100
C1501	C150	0.647140	0.356900	0.204620
C1511	C151	0.707090	0.531690	0.209040
C1521	C152	0.840580	0.302060	0.452380
C1531	C153	0.780310	0.189610	0.359040
C1541	C154	0.541300	0.173270	0.125440
C1551	C155	0.516660	0.184440	0.095360
H581	H58	0.518600	0.216300	0.086400
C1561	C156	0.488910	0.148330	0.078260
C1571	C157	0.487100	0.100800	0.091880
H591	H59	0.469800	0.076000	0.080400
C1581	C158	0.510520	0.090000	0.122110
C1591	C159	0.538070	0.125530	0.139120
H601	H60	0.554200	0.117700	0.159400
C1601	C160	0.505810	0.038700	0.135080
C1611	C161	0.569460	0.213170	0.143640
C1621	C162	0.459680	0.160550	0.047220
Cu131	Cu13	0.747490	0.626500	0.197880
Cu141	Cu14	0.684070	0.593320	0.150740
O791	O79	0.685520	0.650240	0.218080
O801	O80	0.632750	0.626340	0.177300
O811	O81	0.462600	0.681930	0.182450
O821	O82	0.437600	0.736470	0.221650
O831	O83	0.655000	0.839320	0.464380
O841	O84	0.733700	0.864120	0.464040
O851	O85	0.844180	0.805280	0.373010
O861	O86	0.815160	0.754080	0.332950
O871	O87	0.744260	0.565950	0.130870
O881	O88	0.798080	0.593830	0.169500
O891	O89	0.796260	0.460540	0.036120
O901	O90	0.875210	0.434720	0.035120
O911	O91	0.800830	0.654050	0.232920
N251	N25	0.632460	0.740220	0.318050
H611	H61	0.659200	0.733800	0.307000
N261	N26	0.554910	0.747600	0.331590
N271	N27	0.582020	0.763700	0.358660
N281	N28	0.974710	0.504100	0.167150
C1631	C163	0.602090	0.672000	0.223770
C1641	C164	0.555410	0.675580	0.209420
H621	H62	0.549200	0.661500	0.188200
C1651	C165	0.517480	0.700490	0.226860
C1661	C166	0.573530	0.715370	0.273540
C1671	C167	0.610430	0.692320	0.255650
H631	H63	0.641900	0.690300	0.265200
C1681	C168	0.526350	0.720130	0.258640
H641	H64	0.501200	0.736500	0.270300
C1691	C169	0.586370	0.734000	0.307350
C1701	C170	0.629070	0.758300	0.349250
C1711	C171	0.706390	0.811810	0.420130
C1721	C172	0.753590	0.806590	0.406560
H651	H65	0.780900	0.818600	0.418500
C1731	C173	0.760180	0.783300	0.375000
C1741	C174	0.718780	0.766750	0.357140
H661	H66	0.723100	0.751300	0.336100
C1751	C175	0.671570	0.772820	0.369920
C1761	C176	0.665130	0.794760	0.401930
H671	H67	0.633500	0.798000	0.411100
C1771	C177	0.643100	0.647140	0.204620
C1781	C178	0.468310	0.707090	0.209040
C1791	C179	0.697940	0.840580	0.452380
C1801	C180	0.810390	0.780310	0.359040
C1811	C181	0.826730	0.541300	0.125440
C1821	C182	0.815560	0.516660	0.095360
H681	H68	0.783700	0.518600	0.086400
C1831	C183	0.851670	0.488910	0.078260
C1841	C184	0.899200	0.487100	0.091880
H691	H69	0.924000	0.469800	0.080400
C1851	C185	0.910000	0.510520	0.122110
C1861	C186	0.874470	0.538070	0.139120
H701	H70	0.882300	0.554200	0.159400
C1871	C187	0.961300	0.505810	0.135080
C1881	C188	0.786830	0.569460	0.143640
C1891	C189	0.839450	0.459680	0.047220
Cu151	Cu15	0.252510	0.373500	0.197880
Cu161	Cu16	0.315930	0.406680	0.150740
O921	O92	0.314480	0.349760	0.218080
O931	O93	0.367250	0.373660	0.177300
O941	O94	0.537400	0.318070	0.182450
O951	O95	0.562400	0.263530	0.221650
O961	O96	0.345000	0.160680	0.464380
O971	O97	0.266300	0.135880	0.464040
O981	O98	0.155820	0.194720	0.373010
O991	O99	0.184840	0.245920	0.332950
O1001	O100	0.255740	0.434050	0.130870
O1011	O101	0.201920	0.406170	0.169500
O1021	O102	0.203740	0.539460	0.036120
O1031	O103	0.124790	0.565280	0.035120
O1041	O104	0.199170	0.345950	0.232920
N291	N29	0.367540	0.259780	0.318050
H711	H71	0.340800	0.266200	0.307000
N301	N30	0.445090	0.252400	0.331590
N311	N31	0.417980	0.236300	0.358660
N321	N32	0.025290	0.495900	0.167150
C1901	C190	0.397910	0.328000	0.223770
C1911	C191	0.444590	0.324420	0.209420
H721	H72	0.450800	0.338500	0.188200
C1921	C192	0.482520	0.299510	0.226860
C1931	C193	0.426470	0.284630	0.273540
C1941	C194	0.389570	0.307680	0.255650
H731	H73	0.358100	0.309700	0.265200
C1951	C195	0.473650	0.279870	0.258640
H741	H74	0.498800	0.263500	0.270300
C1961	C196	0.413630	0.266000	0.307350
C1971	C197	0.370930	0.241700	0.349250
C1981	C198	0.293610	0.188190	0.420130
C1991	C199	0.246410	0.193410	0.406560
H751	H75	0.219100	0.181400	0.418500
C2001	C200	0.239820	0.216700	0.375000
C2011	C201	0.281220	0.233250	0.357140
H761	H76	0.276900	0.248700	0.336100
C2021	C202	0.328430	0.227180	0.369920
C2031	C203	0.334870	0.205240	0.401930
H771	H77	0.366500	0.202000	0.411100
C2041	C204	0.356900	0.352860	0.204620
C2051	C205	0.531690	0.292910	0.209040
C2061	C206	0.302060	0.159420	0.452380
C2071	C207	0.189610	0.219690	0.359040
C2081	C208	0.173270	0.458700	0.125440
C2091	C209	0.184440	0.483340	0.095360
H781	H78	0.216300	0.481400	0.086400
C2101	C210	0.148330	0.511090	0.078260
C2111	C211	0.100800	0.512900	0.091880
H791	H79	0.076000	0.530200	0.080400
C2121	C212	0.090000	0.489480	0.122110
C2131	C213	0.125530	0.461930	0.139120
H801	H80	0.117700	0.445800	0.159400
C2141	C214	0.038700	0.494190	0.135080
C2151	C215	0.213170	0.430540	0.143640
C2161	C216	0.160550	0.540320	0.047220
Cu171	Cu17	0.873500	0.752510	0.697880
Cu181	Cu18	0.906680	0.815930	0.650740
O1051	O105	0.849760	0.814480	0.718080
O1061	O106	0.873660	0.867250	0.677300
O1071	O107	0.818070	0.037400	0.682450
O1081	O108	0.763530	0.062400	0.721650
O1091	O109	0.660680	0.845000	0.964380
O1101	O110	0.635880	0.766300	0.964040
O1111	O111	0.694720	0.655820	0.873010
O1121	O112	0.745920	0.684840	0.832950
O1131	O113	0.934050	0.755740	0.630870
O1141	O114	0.906170	0.701920	0.669500
O1151	O115	0.039460	0.703740	0.536120
O1161	O116	0.065280	0.624790	0.535120
O1171	O117	0.845950	0.699170	0.732920
N331	N33	0.759780	0.867540	0.818050
H811	H81	0.766200	0.840800	0.807000
N341	N34	0.752400	0.945090	0.831590
N351	N35	0.736300	0.917980	0.858660
N361	N36	0.995900	0.525290	0.667150
C2171	C217	0.828000	0.897910	0.723770
C2181	C218	0.824420	0.944590	0.709420
H821	H82	0.838500	0.950800	0.688200
C2191	C219	0.799510	0.982520	0.726860
C2201	C220	0.784630	0.926470	0.773540
C2211	C221	0.807680	0.889570	0.755650
H831	H83	0.809700	0.858100	0.765200
C2221	C222	0.779870	0.973650	0.758640
H841	H84	0.763500	0.998800	0.770300
C2231	C223	0.766000	0.913630	0.807350
C2241	C224	0.741700	0.870930	0.849250
C2251	C225	0.688190	0.793610	0.920130
C2261	C226	0.693410	0.746410	0.906560
H851	H85	0.681400	0.719100	0.918500
C2271	C227	0.716700	0.739820	0.875000
C2281	C228	0.733250	0.781220	0.857140
H861	H86	0.748700	0.776900	0.836100
C2291	C229	0.727180	0.828430	0.869920
C2301	C230	0.705240	0.834870	0.901930
H871	H87	0.702000	0.866500	0.911100
C2311	C231	0.852860	0.856900	0.704620
C2321	C232	0.792910	0.031690	0.709040
C2331	C233	0.659420	0.802060	0.952380
C2341	C234	0.719690	0.689610	0.859040
C2351	C235	0.958700	0.673270	0.625440
C2361	C236	0.983340	0.684440	0.595360
H881	H88	0.981400	0.716300	0.586400
C2371	C237	0.011090	0.648330	0.578260
C2381	C238	0.012900	0.600800	0.591880
H891	H89	0.030200	0.576000	0.580400
C2391	C239	0.989480	0.590000	0.622110
C2401	C240	0.961930	0.625530	0.639120
H901	H90	0.945800	0.617700	0.659400
C2411	C241	0.994190	0.538700	0.635080
C2421	C242	0.930540	0.713170	0.643640
C2431	C243	0.040320	0.660550	0.547220
Cu191	Cu19	0.126500	0.247490	0.697880
Cu201	Cu20	0.093320	0.184070	0.650740
O1181	O118	0.150240	0.185520	0.718080
O1191	O119	0.126340	0.132750	0.677300
O1201	O120	0.181930	0.962600	0.682450
O1211	O121	0.236470	0.937600	0.721650
O1221	O122	0.339320	0.155000	0.964380
O1231	O123	0.364120	0.233700	0.964040
O1241	O124	0.305280	0.344180	0.873010
O1251	O125	0.254080	0.315160	0.832950
O1261	O126	0.065950	0.244260	0.630870
O1271	O127	0.093830	0.298080	0.669500
O1281	O128	0.960540	0.296260	0.536120
O1291	O129	0.934720	0.375210	0.535120
O1301	O130	0.154050	0.300830	0.732920
N371	N37	0.240220	0.132460	0.818050
H911	H91	0.233800	0.159200	0.807000
N381	N38	0.247600	0.054910	0.831590
N391	N39	0.263700	0.082020	0.858660
N401	N40	0.004100	0.474710	0.667150
C2441	C244	0.172000	0.102090	0.723770
C2451	C245	0.175580	0.055410	0.709420
H921	H92	0.161500	0.049200	0.688200
C2461	C246	0.200490	0.017480	0.726860
C2471	C247	0.215370	0.073530	0.773540
C2481	C248	0.192320	0.110430	0.755650
H931	H93	0.190300	0.141900	0.765200
C2491	C249	0.220130	0.026350	0.758640
H941	H94	0.236500	0.001200	0.770300
C2501	C250	0.234000	0.086370	0.807350
C2511	C251	0.258300	0.129070	0.849250
C2521	C252	0.311810	0.206390	0.920130
C2531	C253	0.306590	0.253590	0.906560
H951	H95	0.318600	0.280900	0.918500
C2541	C254	0.283300	0.260180	0.875000
C2551	C255	0.266750	0.218780	0.857140
H961	H96	0.251300	0.223100	0.836100
C2561	C256	0.272820	0.171570	0.869920
C2571	C257	0.294760	0.165130	0.901930
H971	H97	0.298000	0.133500	0.911100
C2581	C258	0.147140	0.143100	0.704620
C2591	C259	0.207090	0.968310	0.709040
C2601	C260	0.340580	0.197940	0.952380
C2611	C261	0.280310	0.310390	0.859040
C2621	C262	0.041300	0.326730	0.625440
C2631	C263	0.016660	0.315560	0.595360
H981	H98	0.018600	0.283700	0.586400
C2641	C264	0.988910	0.351670	0.578260
C2651	C265	0.987100	0.399200	0.591880
H991	H99	0.969800	0.424000	0.580400
C2661	C266	0.010520	0.410000	0.622110
C2671	C267	0.038070	0.374470	0.639120
H1001	H100	0.054200	0.382300	0.659400
C2681	C268	0.005810	0.461300	0.635080
C2691	C269	0.069460	0.286830	0.643640
C2701	C270	0.959680	0.339450	0.547220
Cu211	Cu21	0.247490	0.873500	0.697880
Cu221	Cu22	0.184070	0.906680	0.650740
O1311	O131	0.185520	0.849760	0.718080
O1321	O132	0.132750	0.873660	0.677300
O1331	O133	0.962600	0.818070	0.682450
O1341	O134	0.937600	0.763530	0.721650
O1351	O135	0.155000	0.660680	0.964380
O1361	O136	0.233700	0.635880	0.964040
O1371	O137	0.344180	0.694720	0.873010
O1381	O138	0.315160	0.745920	0.832950
O1391	O139	0.244260	0.934050	0.630870
O1401	O140	0.298080	0.906170	0.669500
O1411	O141	0.296260	0.039460	0.536120
O1421	O142	0.375210	0.065280	0.535120
O1431	O143	0.300830	0.845950	0.732920
N411	N41	0.132460	0.759780	0.818050
H1011	H101	0.159200	0.766200	0.807000
N421	N42	0.054910	0.752400	0.831590
N431	N43	0.082020	0.736300	0.858660
N441	N44	0.474710	0.995900	0.667150
C2711	C271	0.102090	0.828000	0.723770
C2721	C272	0.055410	0.824420	0.709420
H1021	H102	0.049200	0.838500	0.688200
C2731	C273	0.017480	0.799510	0.726860
C2741	C274	0.073530	0.784630	0.773540
C2751	C275	0.110430	0.807680	0.755650
H1031	H103	0.141900	0.809700	0.765200
C2761	C276	0.026350	0.779870	0.758640
H1041	H104	0.001200	0.763500	0.770300
C2771	C277	0.086370	0.766000	0.807350
C2781	C278	0.129070	0.741700	0.849250
C2791	C279	0.206390	0.688190	0.920130
C2801	C280	0.253590	0.693410	0.906560
H1051	H105	0.280900	0.681400	0.918500
C2811	C281	0.260180	0.716700	0.875000
C2821	C282	0.218780	0.733250	0.857140
H1061	H106	0.223100	0.748700	0.836100
C2831	C283	0.171570	0.727180	0.869920
C2841	C284	0.165130	0.705240	0.901930
H1071	H107	0.133500	0.702000	0.911100
C2851	C285	0.143100	0.852860	0.704620
C2861	C286	0.968310	0.792910	0.709040
C2871	C287	0.197940	0.659420	0.952380
C2881	C288	0.310390	0.719690	0.859040
C2891	C289	0.326730	0.958700	0.625440
C2901	C290	0.315560	0.983340	0.595360
H1081	H108	0.283700	0.981400	0.586400
C2911	C291	0.351670	0.011090	0.578260
C2921	C292	0.399200	0.012900	0.591880
H1091	H109	0.424000	0.030200	0.580400
C2931	C293	0.410000	0.989480	0.622110
C2941	C294	0.374470	0.961930	0.639120
H1101	H110	0.382300	0.945800	0.659400
C2951	C295	0.461300	0.994190	0.635080
C2961	C296	0.286830	0.930540	0.643640
C2971	C297	0.339450	0.040320	0.547220
Cu231	Cu23	0.752510	0.126500	0.697880
Cu241	Cu24	0.815930	0.093320	0.650740
O1441	O144	0.814480	0.150240	0.718080
O1451	O145	0.867250	0.126340	0.677300
O1461	O146	0.037400	0.181930	0.682450
O1471	O147	0.062400	0.236470	0.721650
O1481	O148	0.845000	0.339320	0.964380
O1491	O149	0.766300	0.364120	0.964040
O1501	O150	0.655820	0.305280	0.873010
O1511	O151	0.684840	0.254080	0.832950
O1521	O152	0.755740	0.065950	0.630870
O1531	O153	0.701920	0.093830	0.669500
O1541	O154	0.703740	0.960540	0.536120
O1551	O155	0.624790	0.934720	0.535120
O1561	O156	0.699170	0.154050	0.732920
N451	N45	0.867540	0.240220	0.818050
H1111	H111	0.840800	0.233800	0.807000
N461	N46	0.945090	0.247600	0.831590
N471	N47	0.917980	0.263700	0.858660
N481	N48	0.525290	0.004100	0.667150
C2981	C298	0.897910	0.172000	0.723770
C2991	C299	0.944590	0.175580	0.709420
H1121	H112	0.950800	0.161500	0.688200
C3001	C300	0.982520	0.200490	0.726860
C3011	C301	0.926470	0.215370	0.773540
C3021	C302	0.889570	0.192320	0.755650
H1131	H113	0.858100	0.190300	0.765200
C3031	C303	0.973650	0.220130	0.758640
H1141	H114	0.998800	0.236500	0.770300
C3041	C304	0.913630	0.234000	0.807350
C3051	C305	0.870930	0.258300	0.849250
C3061	C306	0.793610	0.311810	0.920130
C3071	C307	0.746410	0.306590	0.906560
H1151	H115	0.719100	0.318600	0.918500
C3081	C308	0.739820	0.283300	0.875000
C3091	C309	0.781220	0.266750	0.857140
H1161	H116	0.776900	0.251300	0.836100
C3101	C310	0.828430	0.272820	0.869920
C3111	C311	0.834870	0.294760	0.901930
H1171	H117	0.866500	0.298000	0.911100
C3121	C312	0.856900	0.147140	0.704620
C3131	C313	0.031690	0.207090	0.709040
C3141	C314	0.802060	0.340580	0.952380
C3151	C315	0.689610	0.280310	0.859040
C3161	C316	0.673270	0.041300	0.625440
C3171	C317	0.684440	0.016660	0.595360
H1181	H118	0.716300	0.018600	0.586400
C3181	C318	0.648330	0.988910	0.578260
C3191	C319	0.600800	0.987100	0.591880
H1191	H119	0.576000	0.969800	0.580400
C3201	C320	0.590000	0.010520	0.622110
C3211	C321	0.625530	0.038070	0.639120
H1201	H120	0.617700	0.054200	0.659400
C3221	C322	0.538700	0.005810	0.635080
C3231	C323	0.713170	0.069460	0.643640
C3241	C324	0.660550	0.959680	0.547220
Cu251	Cu25	0.626500	0.252510	0.802120
Cu261	Cu26	0.593320	0.315930	0.849260
O1571	O157	0.650240	0.314480	0.781920
O1581	O158	0.626340	0.367250	0.822700
O1591	O159	0.681930	0.537400	0.817550
O1601	O160	0.736470	0.562400	0.778350
O1611	O161	0.839320	0.345000	0.535620
O1621	O162	0.864120	0.266300	0.535960
O1631	O163	0.805280	0.155820	0.626990
O1641	O164	0.754080	0.184840	0.667050
O1651	O165	0.565950	0.255740	0.869130
O1661	O166	0.593830	0.201920	0.830500
O1671	O167	0.460540	0.203740	0.963880
O1681	O168	0.434720	0.124790	0.964880
O1691	O169	0.654050	0.199170	0.767080
N491	N49	0.740220	0.367540	0.681950
H1211	H121	0.733800	0.340800	0.693000
N501	N50	0.747600	0.445090	0.668410
N511	N51	0.763700	0.417980	0.641340
N521	N52	0.504100	0.025290	0.832850
C3251	C325	0.672000	0.397910	0.776230
C3261	C326	0.675580	0.444590	0.790580
H1221	H122	0.661500	0.450800	0.811800
C3271	C327	0.700490	0.482520	0.773140
C3281	C328	0.715370	0.426470	0.726460
C3291	C329	0.692320	0.389570	0.744350
H1231	H123	0.690300	0.358100	0.734800
C3301	C330	0.720130	0.473650	0.741360
H1241	H124	0.736500	0.498800	0.729700
C3311	C331	0.734000	0.413630	0.692650
C3321	C332	0.758300	0.370930	0.650750
C3331	C333	0.811810	0.293610	0.579870
C3341	C334	0.806590	0.246410	0.593440
H1251	H125	0.818600	0.219100	0.581500
C3351	C335	0.783300	0.239820	0.625000
C3361	C336	0.766750	0.281220	0.642860
H1261	H126	0.751300	0.276900	0.663900
C3371	C337	0.772820	0.328430	0.630080
C3381	C338	0.794760	0.334870	0.598070
H1271	H127	0.798000	0.366500	0.588900
C3391	C339	0.647140	0.356900	0.795380
C3401	C340	0.707090	0.531690	0.790960
C3411	C341	0.840580	0.302060	0.547620
C3421	C342	0.780310	0.189610	0.640960
C3431	C343	0.541300	0.173270	0.874560
C3441	C344	0.516660	0.184440	0.904640
H1281	H128	0.518600	0.216300	0.913600
C3451	C345	0.488910	0.148330	0.921740
C3461	C346	0.487100	0.100800	0.908120
H1291	H129	0.469800	0.076000	0.919600
C3471	C347	0.510520	0.090000	0.877890
C3481	C348	0.538070	0.125530	0.860880
H1301	H130	0.554200	0.117700	0.840600
C3491	C349	0.505810	0.038700	0.864920
C3501	C350	0.569460	0.213170	0.856360
C3511	C351	0.459680	0.160550	0.952780
Cu271	Cu27	0.373500	0.747490	0.802120
Cu281	Cu28	0.406680	0.684070	0.849260
O1701	O170	0.349760	0.685520	0.781920
O1711	O171	0.373660	0.632750	0.822700
O1721	O172	0.318070	0.462600	0.817550
O1731	O173	0.263530	0.437600	0.778350
O1741	O174	0.160680	0.655000	0.535620
O1751	O175	0.135880	0.733700	0.535960
O1761	O176	0.194720	0.844180	0.626990
O1771	O177	0.245920	0.815160	0.667050
O1781	O178	0.434050	0.744260	0.869130
O1791	O179	0.406170	0.798080	0.830500
O1801	O180	0.539460	0.796260	0.963880
O1811	O181	0.565280	0.875210	0.964880
O1821	O182	0.345950	0.800830	0.767080
N531	N53	0.259780	0.632460	0.681950
H1311	H131	0.266200	0.659200	0.693000
N541	N54	0.252400	0.554910	0.668410
N551	N55	0.236300	0.582020	0.641340
N561	N56	0.495900	0.974710	0.832850
C3521	C352	0.328000	0.602090	0.776230
C3531	C353	0.324420	0.555410	0.790580
H1321	H132	0.338500	0.549200	0.811800
C3541	C354	0.299510	0.517480	0.773140
C3551	C355	0.284630	0.573530	0.726460
C3561	C356	0.307680	0.610430	0.744350
H1331	H133	0.309700	0.641900	0.734800
C3571	C357	0.279870	0.526350	0.741360
H1341	H134	0.263500	0.501200	0.729700
C3581	C358	0.266000	0.586370	0.692650
C3591	C359	0.241700	0.629070	0.650750
C3601	C360	0.188190	0.706390	0.579870
C3611	C361	0.193410	0.753590	0.593440
H1351	H135	0.181400	0.780900	0.581500
C3621	C362	0.216700	0.760180	0.625000
C3631	C363	0.233250	0.718780	0.642860
H1361	H136	0.248700	0.723100	0.663900
C3641	C364	0.227180	0.671570	0.630080
C3651	C365	0.205240	0.665130	0.598070
H1371	H137	0.202000	0.633500	0.588900
C3661	C366	0.352860	0.643100	0.795380
C3671	C367	0.292910	0.468310	0.790960
C3681	C368	0.159420	0.697940	0.547620
C3691	C369	0.219690	0.810390	0.640960
C3701	C370	0.458700	0.826730	0.874560
C3711	C371	0.483340	0.815560	0.904640
H1381	H138	0.481400	0.783700	0.913600
C3721	C372	0.511090	0.851670	0.921740
C3731	C373	0.512900	0.899200	0.908120
H1391	H139	0.530200	0.924000	0.919600
C3741	C374	0.489480	0.910000	0.877890
C3751	C375	0.461930	0.874470	0.860880
H1401	H140	0.445800	0.882300	0.840600
C3761	C376	0.494190	0.961300	0.864920
C3771	C377	0.430540	0.786830	0.856360
C3781	C378	0.540320	0.839450	0.952780
Cu291	Cu29	0.252510	0.373500	0.802120
Cu301	Cu30	0.315930	0.406680	0.849260
O1831	O183	0.314480	0.349760	0.781920
O1841	O184	0.367250	0.373660	0.822700
O1851	O185	0.537400	0.318070	0.817550
O1861	O186	0.562400	0.263530	0.778350
O1871	O187	0.345000	0.160680	0.535620
O1881	O188	0.266300	0.135880	0.535960
O1891	O189	0.155820	0.194720	0.626990
O1901	O190	0.184840	0.245920	0.667050
O1911	O191	0.255740	0.434050	0.869130
O1921	O192	0.201920	0.406170	0.830500
O1931	O193	0.203740	0.539460	0.963880
O1941	O194	0.124790	0.565280	0.964880
O1951	O195	0.199170	0.345950	0.767080
N571	N57	0.367540	0.259780	0.681950
H1411	H141	0.340800	0.266200	0.693000
N581	N58	0.445090	0.252400	0.668410
N591	N59	0.417980	0.236300	0.641340
N601	N60	0.025290	0.495900	0.832850
C3791	C379	0.397910	0.328000	0.776230
C3801	C380	0.444590	0.324420	0.790580
H1421	H142	0.450800	0.338500	0.811800
C3811	C381	0.482520	0.299510	0.773140
C3821	C382	0.426470	0.284630	0.726460
C3831	C383	0.389570	0.307680	0.744350
H1431	H143	0.358100	0.309700	0.734800
C3841	C384	0.473650	0.279870	0.741360
H1441	H144	0.498800	0.263500	0.729700
C3851	C385	0.413630	0.266000	0.692650
C3861	C386	0.370930	0.241700	0.650750
C3871	C387	0.293610	0.188190	0.579870
C3881	C388	0.246410	0.193410	0.593440
H1451	H145	0.219100	0.181400	0.581500
C3891	C389	0.239820	0.216700	0.625000
C3901	C390	0.281220	0.233250	0.642860
H1461	H146	0.276900	0.248700	0.663900
C3911	C391	0.328430	0.227180	0.630080
C3921	C392	0.334870	0.205240	0.598070
H1471	H147	0.366500	0.202000	0.588900
C3931	C393	0.356900	0.352860	0.795380
C3941	C394	0.531690	0.292910	0.790960
C3951	C395	0.302060	0.159420	0.547620
C3961	C396	0.189610	0.219690	0.640960
C3971	C397	0.173270	0.458700	0.874560
C3981	C398	0.184440	0.483340	0.904640
H1481	H148	0.216300	0.481400	0.913600
C3991	C399	0.148330	0.511090	0.921740
C4001	C400	0.100800	0.512900	0.908120
H1491	H149	0.076000	0.530200	0.919600
C4011	C401	0.090000	0.489480	0.877890
C4021	C402	0.125530	0.461930	0.860880
H1501	H150	0.117700	0.445800	0.840600
C4031	C403	0.038700	0.494190	0.864920
C4041	C404	0.213170	0.430540	0.856360
C4051	C405	0.160550	0.540320	0.952780
Cu311	Cu31	0.747490	0.626500	0.802120
Cu321	Cu32	0.684070	0.593320	0.849260
O1961	O196	0.685520	0.650240	0.781920
O1971	O197	0.632750	0.626340	0.822700
O1981	O198	0.462600	0.681930	0.817550
O1991	O199	0.437600	0.736470	0.778350
O2001	O200	0.655000	0.839320	0.535620
O2011	O201	0.733700	0.864120	0.535960
O2021	O202	0.844180	0.805280	0.626990
O2031	O203	0.815160	0.754080	0.667050
O2041	O204	0.744260	0.565950	0.869130
O2051	O205	0.798080	0.593830	0.830500
O2061	O206	0.796260	0.460540	0.963880
O2071	O207	0.875210	0.434720	0.964880
O2081	O208	0.800830	0.654050	0.767080
N611	N61	0.632460	0.740220	0.681950
H1511	H151	0.659200	0.733800	0.693000
N621	N62	0.554910	0.747600	0.668410
N631	N63	0.582020	0.763700	0.641340
N641	N64	0.974710	0.504100	0.832850
C4061	C406	0.602090	0.672000	0.776230
C4071	C407	0.555410	0.675580	0.790580
H1521	H152	0.549200	0.661500	0.811800
C4081	C408	0.517480	0.700490	0.773140
C4091	C409	0.573530	0.715370	0.726460
C4101	C410	0.610430	0.692320	0.744350
H1531	H153	0.641900	0.690300	0.734800
C4111	C411	0.526350	0.720130	0.741360
H1541	H154	0.501200	0.736500	0.729700
C4121	C412	0.586370	0.734000	0.692650
C4131	C413	0.629070	0.758300	0.650750
C4141	C414	0.706390	0.811810	0.579870
C4151	C415	0.753590	0.806590	0.593440
H1551	H155	0.780900	0.818600	0.581500
C4161	C416	0.760180	0.783300	0.625000
C4171	C417	0.718780	0.766750	0.642860
H1561	H156	0.723100	0.751300	0.663900
C4181	C418	0.671570	0.772820	0.630080
C4191	C419	0.665130	0.794760	0.598070
H1571	H157	0.633500	0.798000	0.588900
C4201	C420	0.643100	0.647140	0.795380
C4211	C421	0.468310	0.707090	0.790960
C4221	C422	0.697940	0.840580	0.547620
C4231	C423	0.810390	0.780310	0.640960
C4241	C424	0.826730	0.541300	0.874560
C4251	C425	0.815560	0.516660	0.904640
H1581	H158	0.783700	0.518600	0.913600
C4261	C426	0.851670	0.488910	0.921740
C4271	C427	0.899200	0.487100	0.908120
H1591	H159	0.924000	0.469800	0.919600
C4281	C428	0.910000	0.510520	0.877890
C4291	C429	0.874470	0.538070	0.860880
H1601	H160	0.882300	0.554200	0.840600
C4301	C430	0.961300	0.505810	0.864920
C4311	C431	0.786830	0.569460	0.856360
C4321	C432	0.839450	0.459680	0.952780
Cu331	Cu33	0.914840	0.273420	0.500000
Cu341	Cu34	0.884400	0.367350	0.500000
Cu351	Cu35	0.085160	0.726580	0.500000
Cu361	Cu36	0.115600	0.632650	0.500000
Cu371	Cu37	0.726580	0.914840	0.500000
Cu381	Cu38	0.632650	0.884400	0.500000
Cu391	Cu39	0.273420	0.085160	0.500000
Cu401	Cu40	0.367350	0.115600	0.500000
Cu411	Cu41	0.585160	0.773420	0.000000
Cu421	Cu42	0.615600	0.867350	0.000000
Cu431	Cu43	0.414840	0.226580	0.000000
Cu441	Cu44	0.384400	0.132650	0.000000
Cu451	Cu45	0.773420	0.414840	0.000000
Cu461	Cu46	0.867350	0.384400	0.000000
Cu471	Cu47	0.226580	0.585160	0.000000
Cu481	Cu48	0.132650	0.615600	0.000000
N651	N65	0.000000	0.500000	0.385410
H1611	H161	0.000000	0.500000	0.407300
N661	N66	0.500000	0.000000	0.385410
H1621	H162	0.500000	0.000000	0.407300
N671	N67	0.500000	0.000000	0.114590
H1631	H163	0.500000	0.000000	0.092700
N681	N68	0.000000	0.500000	0.114590
H1641	H164	0.000000	0.500000	0.092700
N691	N69	0.000000	0.500000	0.614590
H1651	H165	0.000000	0.500000	0.592700
N701	N70	0.500000	0.000000	0.614590
H1661	H166	0.500000	0.000000	0.592700
N711	N71	0.500000	0.000000	0.885410
H1671	H167	0.500000	0.000000	0.907300
N721	N72	0.000000	0.500000	0.885410
H1681	H168	0.000000	0.500000	0.907300
C4331	C433	0.189270	0.310730	0.250000
H1691	H169	0.213600	0.286400	0.250000
C4341	C434	0.810730	0.689270	0.250000
H1701	H170	0.786400	0.713600	0.250000
C4351	C435	0.689270	0.189270	0.250000
H1711	H171	0.713600	0.213600	0.250000
C4361	C436	0.310730	0.810730	0.250000
H1721	H172	0.286400	0.786400	0.250000
C4371	C437	0.810730	0.689270	0.750000
H1731	H173	0.786400	0.713600	0.750000
C4381	C438	0.189270	0.310730	0.750000
H1741	H174	0.213600	0.286400	0.750000
C4391	C439	0.310730	0.810730	0.750000
H1751	H175	0.286400	0.786400	0.750000
C4401	C440	0.689270	0.189270	0.750000
H1761	H176	0.713600	0.213600	0.750000
