data_YAVZAX_clean_PM
_symmetry_space_group_name_H-M	'P1'
_cell_length_a	11.164000
_cell_length_b	11.164000
_cell_length_c	10.638000
_cell_angle_alpha	90.000000
_cell_angle_beta	90.000000
_cell_angle_gamma	90.000000
_symmetry_Int_Tables_number 1

loop_
_symmetry_equiv_pos_as_xyz
'x,y,z'

loop_
_atom_site_label
_atom_site_type_symbol
_atom_site_fract_x
_atom_site_fract_y
_atom_site_fract_z
Cu11	Cu1	0.913990	0.086010	0.214820
Cu21	Cu2	0.585110	0.414890	0.055210
S11	S1	0.694740	0.305260	0.911070
N11	N1	0.823400	0.176600	0.090200
C11	C1	0.771500	0.228500	0.016500
Cu31	Cu3	0.086010	0.913990	0.214820
Cu41	Cu4	0.414890	0.585110	0.055210
S21	S2	0.305260	0.694740	0.911070
N21	N2	0.176600	0.823400	0.090200
C21	C2	0.228500	0.771500	0.016500
Cu51	Cu5	0.913990	0.913990	0.714820
Cu61	Cu6	0.585110	0.585110	0.555210
S31	S3	0.694740	0.694740	0.411070
N31	N3	0.823400	0.823400	0.590200
C31	C3	0.771500	0.771500	0.516500
Cu71	Cu7	0.086010	0.086010	0.714820
Cu81	Cu8	0.414890	0.414890	0.555210
S41	S4	0.305260	0.305260	0.411070
N41	N4	0.176600	0.176600	0.590200
C41	C4	0.228500	0.228500	0.516500
S51	S5	0.122520	0.122520	0.157490
N51	N5	0.109300	0.109300	0.893400
C51	C5	0.113300	0.113300	0.001500
S61	S6	0.877480	0.877480	0.157490
N61	N6	0.890700	0.890700	0.893400
C61	C6	0.886700	0.886700	0.001500
S71	S7	0.877480	0.122520	0.657490
N71	N7	0.890700	0.109300	0.393400
C71	C7	0.886700	0.113300	0.501500
S81	S8	0.122520	0.877480	0.657490
N81	N8	0.109300	0.890700	0.393400
C81	C8	0.113300	0.886700	0.501500
S91	S9	0.624480	0.624480	0.997660
N91	N9	0.608800	0.608800	0.734700
C91	C9	0.614200	0.614200	0.841700
S101	S10	0.375520	0.375520	0.997660
N101	N10	0.391200	0.391200	0.734700
C101	C10	0.385800	0.385800	0.841700
S111	S11	0.375520	0.624480	0.497660
N111	N11	0.391200	0.608800	0.234700
C111	C11	0.385800	0.614200	0.341700
S121	S12	0.624480	0.375520	0.497660
N121	N12	0.608800	0.391200	0.234700
C121	C12	0.614200	0.385800	0.341700
