data_YAWFOS_clean_PM
_symmetry_space_group_name_H-M	'P1'
_cell_length_a	8.896500
_cell_length_b	11.719300
_cell_length_c	52.414000
_cell_angle_alpha	90.000000
_cell_angle_beta	97.734000
_cell_angle_gamma	90.000000
_symmetry_Int_Tables_number 1

loop_
_symmetry_equiv_pos_as_xyz
'x,y,z'

loop_
_atom_site_label
_atom_site_type_symbol
_atom_site_fract_x
_atom_site_fract_y
_atom_site_fract_z
Cd11	Cd1	0.324240	0.115610	0.069170
Cd21	Cd2	0.361230	0.157170	0.179370
Cd31	Cd3	0.886610	0.441350	0.183230
Cd41	Cd4	0.834840	0.410360	0.072680
Cd51	Cd5	0.875100	0.903770	0.210590
Cd61	Cd6	0.782860	0.865600	0.038950
C11	C1	0.346900	0.123800	0.135600
N11	N1	0.340200	0.116000	0.114000
C21	C2	0.640800	0.292600	0.068600
N21	N2	0.536100	0.232300	0.069800
C31	C3	0.995200	0.952300	0.054800
N31	N3	0.104400	0.997800	0.062900
C41	C4	0.270500	0.131200	0.003100
N41	N4	0.295800	0.126500	0.025300
C51	C5	0.590400	0.921500	0.059000
N51	N5	0.488100	0.958700	0.067500
C61	C6	0.052400	0.327700	0.068400
N61	N6	0.159900	0.276900	0.067600
C71	C7	0.105200	0.374000	0.174600
N71	N7	0.213100	0.324500	0.171000
C81	C8	0.043600	0.001500	0.191200
N81	N8	0.140600	0.053800	0.184400
C91	C9	0.641200	0.971400	0.201300
N91	N9	0.528300	0.013000	0.194000
C101	C10	0.687800	0.331700	0.180300
N101	N10	0.578300	0.271600	0.178300
C111	C11	0.835800	0.453000	0.114500
N111	N11	0.825300	0.466400	0.136100
C121	C12	0.873700	0.626700	0.191000
N121	N12	0.872300	0.721800	0.196300
C131	C13	0.026900	0.397700	0.248900
N131	N13	0.962800	0.403600	0.228000
C141	C14	0.814400	0.581100	0.054300
N141	N14	0.809900	0.677900	0.048800
N151	N15	0.354100	0.229500	0.222500
H11	H1	0.264200	0.203000	0.218200
H21	H2	0.386700	0.284600	0.213900
C151	C15	0.450700	0.181400	0.244400
C161	C16	0.398000	0.093700	0.258000
H31	H3	0.299100	0.067300	0.254100
C171	C17	0.500000	0.043600	0.278600
H41	H4	0.465000	0.987300	0.288800
C181	C18	0.651000	0.079600	0.283100
H51	H5	0.718600	0.045400	0.295800
C191	C19	0.695000	0.164000	0.268600
H61	H6	0.795000	0.190200	0.272100
C201	C20	0.600000	0.214600	0.249100
H71	H7	0.636300	0.270900	0.239000
Cd71	Cd7	0.675760	0.615610	0.430830
Cd81	Cd8	0.638770	0.657170	0.320630
Cd91	Cd9	0.113390	0.941350	0.316770
Cd101	Cd10	0.165160	0.910360	0.427320
Cd111	Cd11	0.124900	0.403770	0.289410
Cd121	Cd12	0.217140	0.365600	0.461050
C211	C21	0.653100	0.623800	0.364400
N161	N16	0.659800	0.616000	0.386000
C221	C22	0.359200	0.792600	0.431400
N171	N17	0.463900	0.732300	0.430200
C231	C23	0.004800	0.452300	0.445200
N181	N18	0.895600	0.497800	0.437100
C241	C24	0.729500	0.631200	0.496900
N191	N19	0.704200	0.626500	0.474700
C251	C25	0.409600	0.421500	0.441000
N201	N20	0.511900	0.458700	0.432500
C261	C26	0.947600	0.827700	0.431600
N211	N21	0.840100	0.776900	0.432400
C271	C27	0.894800	0.874000	0.325400
N221	N22	0.786900	0.824500	0.329000
C281	C28	0.956400	0.501500	0.308800
N231	N23	0.859400	0.553800	0.315600
C291	C29	0.358800	0.471400	0.298700
N241	N24	0.471700	0.513000	0.306000
C301	C30	0.312200	0.831700	0.319700
N251	N25	0.421700	0.771600	0.321700
C311	C31	0.164200	0.953000	0.385500
N261	N26	0.174700	0.966400	0.363900
C321	C32	0.126300	0.126700	0.309000
N271	N27	0.127700	0.221800	0.303700
C331	C33	0.973100	0.897700	0.251100
N281	N28	0.037200	0.903600	0.272000
C341	C34	0.185600	0.081100	0.445700
N291	N29	0.190100	0.177900	0.451200
N301	N30	0.645900	0.729500	0.277500
H81	H8	0.735800	0.703000	0.281800
H91	H9	0.613300	0.784600	0.286100
C351	C35	0.549300	0.681400	0.255600
C361	C36	0.602000	0.593700	0.242000
H101	H10	0.700900	0.567300	0.245900
C371	C37	0.500000	0.543600	0.221400
H111	H11	0.535000	0.487300	0.211200
C381	C38	0.349000	0.579600	0.216900
H121	H12	0.281400	0.545400	0.204200
C391	C39	0.305000	0.664000	0.231400
H131	H13	0.205000	0.690200	0.227900
C401	C40	0.400000	0.714600	0.250900
H141	H14	0.363700	0.770900	0.261000
Cd131	Cd13	0.675760	0.884390	0.930830
Cd141	Cd14	0.638770	0.842830	0.820630
Cd151	Cd15	0.113390	0.558650	0.816770
Cd161	Cd16	0.165160	0.589640	0.927320
Cd171	Cd17	0.124900	0.096230	0.789410
Cd181	Cd18	0.217140	0.134400	0.961050
C411	C41	0.653100	0.876200	0.864400
N311	N31	0.659800	0.884000	0.886000
C421	C42	0.359200	0.707400	0.931400
N321	N32	0.463900	0.767700	0.930200
C431	C43	0.004800	0.047700	0.945200
N331	N33	0.895600	0.002200	0.937100
C441	C44	0.729500	0.868800	0.996900
N341	N34	0.704200	0.873500	0.974700
C451	C45	0.409600	0.078500	0.941000
N351	N35	0.511900	0.041300	0.932500
C461	C46	0.947600	0.672300	0.931600
N361	N36	0.840100	0.723100	0.932400
C471	C47	0.894800	0.626000	0.825400
N371	N37	0.786900	0.675500	0.829000
C481	C48	0.956400	0.998500	0.808800
N381	N38	0.859400	0.946200	0.815600
C491	C49	0.358800	0.028600	0.798700
N391	N39	0.471700	0.987000	0.806000
C501	C50	0.312200	0.668300	0.819700
N401	N40	0.421700	0.728400	0.821700
C511	C51	0.164200	0.547000	0.885500
N411	N41	0.174700	0.533600	0.863900
C521	C52	0.126300	0.373300	0.809000
N421	N42	0.127700	0.278200	0.803700
C531	C53	0.973100	0.602300	0.751100
N431	N43	0.037200	0.596400	0.772000
C541	C54	0.185600	0.418900	0.945700
N441	N44	0.190100	0.322100	0.951200
N451	N45	0.645900	0.770500	0.777500
H151	H15	0.735800	0.797000	0.781800
H161	H16	0.613300	0.715400	0.786100
C551	C55	0.549300	0.818600	0.755600
C561	C56	0.602000	0.906300	0.742000
H171	H17	0.700900	0.932700	0.745900
C571	C57	0.500000	0.956400	0.721400
H181	H18	0.535000	0.012700	0.711200
C581	C58	0.349000	0.920400	0.716900
H191	H19	0.281400	0.954600	0.704200
C591	C59	0.305000	0.836000	0.731400
H201	H20	0.205000	0.809800	0.727900
C601	C60	0.400000	0.785400	0.750900
H211	H21	0.363700	0.729100	0.761000
Cd191	Cd19	0.324240	0.384390	0.569170
Cd201	Cd20	0.361230	0.342830	0.679370
Cd211	Cd21	0.886610	0.058650	0.683230
Cd221	Cd22	0.834840	0.089640	0.572680
Cd231	Cd23	0.875100	0.596230	0.710590
Cd241	Cd24	0.782860	0.634400	0.538950
C611	C61	0.346900	0.376200	0.635600
N461	N46	0.340200	0.384000	0.614000
C621	C62	0.640800	0.207400	0.568600
N471	N47	0.536100	0.267700	0.569800
C631	C63	0.995200	0.547700	0.554800
N481	N48	0.104400	0.502200	0.562900
C641	C64	0.270500	0.368800	0.503100
N491	N49	0.295800	0.373500	0.525300
C651	C65	0.590400	0.578500	0.559000
N501	N50	0.488100	0.541300	0.567500
C661	C66	0.052400	0.172300	0.568400
N511	N51	0.159900	0.223100	0.567600
C671	C67	0.105200	0.126000	0.674600
N521	N52	0.213100	0.175500	0.671000
C681	C68	0.043600	0.498500	0.691200
N531	N53	0.140600	0.446200	0.684400
C691	C69	0.641200	0.528600	0.701300
N541	N54	0.528300	0.487000	0.694000
C701	C70	0.687800	0.168300	0.680300
N551	N55	0.578300	0.228400	0.678300
C711	C71	0.835800	0.047000	0.614500
N561	N56	0.825300	0.033600	0.636100
C721	C72	0.873700	0.873300	0.691000
N571	N57	0.872300	0.778200	0.696300
C731	C73	0.026900	0.102300	0.748900
N581	N58	0.962800	0.096400	0.728000
C741	C74	0.814400	0.918900	0.554300
N591	N59	0.809900	0.822100	0.548800
N601	N60	0.354100	0.270500	0.722500
H221	H22	0.264200	0.297000	0.718200
H231	H23	0.386700	0.215400	0.713900
C751	C75	0.450700	0.318600	0.744400
C761	C76	0.398000	0.406300	0.758000
H241	H24	0.299100	0.432700	0.754100
C771	C77	0.500000	0.456400	0.778600
H251	H25	0.465000	0.512700	0.788800
C781	C78	0.651000	0.420400	0.783100
H261	H26	0.718600	0.454600	0.795800
C791	C79	0.695000	0.336000	0.768600
H271	H27	0.795000	0.309800	0.772100
C801	C80	0.600000	0.285400	0.749100
H281	H28	0.636300	0.229100	0.739000
