data_YAWKOX_clean_PM
_symmetry_space_group_name_H-M	'P1'
_cell_length_a	8.717000
_cell_length_b	13.083000
_cell_length_c	31.050000
_cell_angle_alpha	90.000000
_cell_angle_beta	90.000000
_cell_angle_gamma	90.000000
_symmetry_Int_Tables_number 1

loop_
_symmetry_equiv_pos_as_xyz
'x,y,z'

loop_
_atom_site_label
_atom_site_type_symbol
_atom_site_fract_x
_atom_site_fract_y
_atom_site_fract_z
Pr11	Pr1	0.668780	0.239150	0.906700
Pr21	Pr2	0.831220	0.739150	0.093300
Pr31	Pr3	0.331220	0.760850	0.406700
Pr41	Pr4	0.168780	0.260850	0.593300
Pr51	Pr5	0.331220	0.760850	0.093300
Pr61	Pr6	0.168780	0.260850	0.906700
Pr71	Pr7	0.668780	0.239150	0.593300
Pr81	Pr8	0.831220	0.739150	0.406700
H11	H1	0.617100	0.876100	0.873800
H21	H2	0.760000	0.867500	0.904400
H31	H3	0.533600	0.783000	0.932600
H41	H4	0.457000	0.890900	0.937300
H51	H5	0.644900	0.939600	0.987300
H61	H6	0.727500	0.834100	0.981700
H71	H7	0.995600	0.092800	0.791600
H81	H8	0.056100	0.205600	0.790600
H91	H9	0.882900	0.376100	0.126200
H101	H10	0.740000	0.367500	0.095600
H111	H11	0.966400	0.283000	0.067400
H121	H12	0.043000	0.390900	0.062700
H131	H13	0.855100	0.439600	0.012700
H141	H14	0.772500	0.334100	0.018300
H151	H15	0.504400	0.592800	0.208400
H161	H16	0.443900	0.705600	0.209400
H171	H17	0.382900	0.123900	0.373800
H181	H18	0.240000	0.132500	0.404400
H191	H19	0.466400	0.217000	0.432600
H201	H20	0.543000	0.109100	0.437300
H211	H21	0.355100	0.060400	0.487300
H221	H22	0.272500	0.165900	0.481700
H231	H23	0.004400	0.907200	0.291600
H241	H24	0.943900	0.794400	0.290600
H251	H25	0.117100	0.623900	0.626200
H261	H26	0.260000	0.632500	0.595600
H271	H27	0.033600	0.717000	0.567400
H281	H28	0.957000	0.609100	0.562700
H291	H29	0.144900	0.560400	0.512700
H301	H30	0.227500	0.665900	0.518300
H311	H31	0.495600	0.407200	0.708400
H321	H32	0.556100	0.294400	0.709400
H331	H33	0.382900	0.123900	0.126200
H341	H34	0.240000	0.132500	0.095600
H351	H35	0.466400	0.217000	0.067400
H361	H36	0.543000	0.109100	0.062700
H371	H37	0.355100	0.060400	0.012700
H381	H38	0.272500	0.165900	0.018300
H391	H39	0.004400	0.907200	0.208400
H401	H40	0.943900	0.794400	0.209400
H411	H41	0.117100	0.623900	0.873800
H421	H42	0.260000	0.632500	0.904400
H431	H43	0.033600	0.717000	0.932600
H441	H44	0.957000	0.609100	0.937300
H451	H45	0.144900	0.560400	0.987300
H461	H46	0.227500	0.665900	0.981700
H471	H47	0.495600	0.407200	0.791600
H481	H48	0.556100	0.294400	0.790600
H491	H49	0.617100	0.876100	0.626200
H501	H50	0.760000	0.867500	0.595600
H511	H51	0.533600	0.783000	0.567400
H521	H52	0.457000	0.890900	0.562700
H531	H53	0.644900	0.939600	0.512700
H541	H54	0.727500	0.834100	0.518300
H551	H55	0.995600	0.092800	0.708400
H561	H56	0.056100	0.205600	0.709400
H571	H57	0.882900	0.376100	0.373800
H581	H58	0.740000	0.367500	0.404400
H591	H59	0.966400	0.283000	0.432600
H601	H60	0.043000	0.390900	0.437300
H611	H61	0.855100	0.439600	0.487300
H621	H62	0.772500	0.334100	0.481700
H631	H63	0.504400	0.592800	0.291600
H641	H64	0.443900	0.705600	0.290600
H651	H65	0.784500	0.139600	0.750000
H661	H66	0.839600	0.253500	0.750000
H671	H67	0.715500	0.639600	0.250000
H681	H68	0.660400	0.753500	0.250000
H691	H69	0.215500	0.860400	0.250000
H701	H70	0.160400	0.746500	0.250000
H711	H71	0.284500	0.360400	0.750000
H721	H72	0.339600	0.246500	0.750000
C11	C1	0.667700	0.013100	0.903880
C21	C2	0.658100	0.896400	0.901600
C31	C3	0.554100	0.854800	0.937800
C41	C4	0.628000	0.867400	0.982000
C51	C5	0.535400	0.824300	0.018500
C61	C6	0.873600	0.187500	0.830930
C71	C7	0.964100	0.163900	0.790900
C81	C8	0.832300	0.513100	0.096120
C91	C9	0.841900	0.396400	0.098400
C101	C10	0.945900	0.354800	0.062200
C111	C11	0.872000	0.367400	0.018000
C121	C12	0.964600	0.324300	0.981500
C131	C13	0.626400	0.687500	0.169070
C141	C14	0.535900	0.663900	0.209100
C151	C15	0.332300	0.986900	0.403880
C161	C16	0.341900	0.103600	0.401600
C171	C17	0.445900	0.145200	0.437800
C181	C18	0.372000	0.132600	0.482000
C191	C19	0.464600	0.175700	0.518500
C201	C20	0.126400	0.812500	0.330930
C211	C21	0.035900	0.836100	0.290900
C221	C22	0.167700	0.486900	0.596120
C231	C23	0.158100	0.603600	0.598400
C241	C24	0.054100	0.645200	0.562200
C251	C25	0.128000	0.632600	0.518000
C261	C26	0.035400	0.675700	0.481500
C271	C27	0.373600	0.312500	0.669070
C281	C28	0.464100	0.336100	0.709100
C291	C29	0.332300	0.986900	0.096120
C301	C30	0.341900	0.103600	0.098400
C311	C31	0.445900	0.145200	0.062200
C321	C32	0.372000	0.132600	0.018000
C331	C33	0.464600	0.175700	0.981500
C341	C34	0.126400	0.812500	0.169070
C351	C35	0.035900	0.836100	0.209100
C361	C36	0.167700	0.486900	0.903880
C371	C37	0.158100	0.603600	0.901600
C381	C38	0.054100	0.645200	0.937800
C391	C39	0.128000	0.632600	0.982000
C401	C40	0.035400	0.675700	0.018500
C411	C41	0.373600	0.312500	0.830930
C421	C42	0.464100	0.336100	0.790900
C431	C43	0.667700	0.013100	0.596120
C441	C44	0.658100	0.896400	0.598400
C451	C45	0.554100	0.854800	0.562200
C461	C46	0.628000	0.867400	0.518000
C471	C47	0.535400	0.824300	0.481500
C481	C48	0.873600	0.187500	0.669070
C491	C49	0.964100	0.163900	0.709100
C501	C50	0.832300	0.513100	0.403880
C511	C51	0.841900	0.396400	0.401600
C521	C52	0.945900	0.354800	0.437800
C531	C53	0.872000	0.367400	0.482000
C541	C54	0.964600	0.324300	0.518500
C551	C55	0.626400	0.687500	0.330930
C561	C56	0.535900	0.663900	0.290900
C571	C57	0.874600	0.183100	0.750000
C581	C58	0.625400	0.683100	0.250000
C591	C59	0.125400	0.816900	0.250000
C601	C60	0.374600	0.316900	0.750000
O11	O1	0.787500	0.057900	0.915380
O21	O2	0.547700	0.064800	0.895080
O31	O3	0.391500	0.826200	0.017510
O41	O4	0.605600	0.787000	0.051140
O51	O5	0.731900	0.176200	0.831350
O61	O6	0.943200	0.216200	0.865280
O71	O7	0.712500	0.557900	0.084620
O81	O8	0.952300	0.564800	0.104920
O91	O9	0.108500	0.326200	0.982490
O101	O10	0.894400	0.287000	0.948860
O111	O11	0.768100	0.676200	0.168650
O121	O12	0.556800	0.716200	0.134720
O131	O13	0.212500	0.942100	0.415380
O141	O14	0.452300	0.935200	0.395080
O151	O15	0.608500	0.173800	0.517510
O161	O16	0.394400	0.213000	0.551140
O171	O17	0.268100	0.823800	0.331350
O181	O18	0.056800	0.783800	0.365280
O191	O19	0.287500	0.442100	0.584620
O201	O20	0.047700	0.435200	0.604920
O211	O21	0.891500	0.673800	0.482490
O221	O22	0.105600	0.713000	0.448860
O231	O23	0.231900	0.323800	0.668650
O241	O24	0.443200	0.283800	0.634720
O251	O25	0.212500	0.942100	0.084620
O261	O26	0.452300	0.935200	0.104920
O271	O27	0.608500	0.173800	0.982490
O281	O28	0.394400	0.213000	0.948860
O291	O29	0.268100	0.823800	0.168650
O301	O30	0.056800	0.783800	0.134720
O311	O31	0.287500	0.442100	0.915380
O321	O32	0.047700	0.435200	0.895080
O331	O33	0.891500	0.673800	0.017510
O341	O34	0.105600	0.713000	0.051140
O351	O35	0.231900	0.323800	0.831350
O361	O36	0.443200	0.283800	0.865280
O371	O37	0.787500	0.057900	0.584620
O381	O38	0.547700	0.064800	0.604920
O391	O39	0.391500	0.826200	0.482490
O401	O40	0.605600	0.787000	0.448860
O411	O41	0.731900	0.176200	0.668650
O421	O42	0.943200	0.216200	0.634720
O431	O43	0.712500	0.557900	0.415380
O441	O44	0.952300	0.564800	0.395080
O451	O45	0.108500	0.326200	0.517510
O461	O46	0.894400	0.287000	0.551140
O471	O47	0.768100	0.676200	0.331350
O481	O48	0.556800	0.716200	0.365280
