data_YAXBOP_SL_PM
_symmetry_space_group_name_H-M	'P1'
_cell_length_a	19.234100
_cell_length_b	11.073000
_cell_length_c	6.889000
_cell_angle_alpha	90.000000
_cell_angle_beta	71.690000
_cell_angle_gamma	90.000000
_symmetry_Int_Tables_number 1

loop_
_symmetry_equiv_pos_as_xyz
'x,y,z'

loop_
_atom_site_label
_atom_site_type_symbol
_atom_site_fract_x
_atom_site_fract_y
_atom_site_fract_z
H11	H1	0.208800	0.191900	0.337400
H21	H2	0.180700	0.215100	0.787600
C31	C3	0.181500	0.194600	0.078100
C41	C4	0.225200	0.215700	0.201000
C51	C5	0.108500	0.134000	0.156500
C61	C6	0.208500	0.229500	0.874000
O71	O7	0.071200	0.126000	0.039100
O81	O8	0.088800	0.100600	0.343700
H91	H9	0.500000	0.672110	0.750000
H101	H10	0.708800	0.691900	0.337400
H111	H11	0.680700	0.715100	0.787600
C121	C12	0.681500	0.694600	0.078100
C131	C13	0.725200	0.715700	0.201000
C141	C14	0.608500	0.634000	0.156500
C151	C15	0.708500	0.729500	0.874000
O161	O16	0.571200	0.626000	0.039100
O171	O17	0.588800	0.600600	0.343700
H181	H18	0.000000	0.172110	0.750000
H191	H19	0.791200	0.191900	0.162600
H201	H20	0.819300	0.215100	0.712400
C211	C21	0.818500	0.194600	0.421900
C221	C22	0.774800	0.215700	0.299000
C231	C23	0.891500	0.134000	0.343500
C241	C24	0.791500	0.229500	0.626000
O251	O25	0.928800	0.126000	0.460900
O261	O26	0.911200	0.100600	0.156300
H281	H28	0.291200	0.691900	0.162600
H291	H29	0.319300	0.715100	0.712400
C301	C30	0.318500	0.694600	0.421900
C311	C31	0.274800	0.715700	0.299000
C321	C32	0.391500	0.634000	0.343500
C331	C33	0.291500	0.729500	0.626000
O341	O34	0.428800	0.626000	0.460900
O351	O35	0.411200	0.600600	0.156300
H371	H37	0.791200	0.808100	0.662600
H381	H38	0.819300	0.784900	0.212400
C391	C39	0.818500	0.805400	0.921900
C401	C40	0.774800	0.784300	0.799000
C411	C41	0.891500	0.866000	0.843500
C421	C42	0.791500	0.770500	0.126000
O431	O43	0.928800	0.874000	0.960900
O441	O44	0.911200	0.899400	0.656300
H451	H45	0.500000	0.327890	0.250000
H461	H46	0.291200	0.308100	0.662600
H471	H47	0.319300	0.284900	0.212400
C481	C48	0.318500	0.305400	0.921900
C491	C49	0.274800	0.284300	0.799000
C501	C50	0.391500	0.366000	0.843500
C511	C51	0.291500	0.270500	0.126000
O521	O52	0.428800	0.374000	0.960900
O531	O53	0.411200	0.399400	0.656300
H541	H54	0.000000	0.827890	0.250000
H551	H55	0.208800	0.808100	0.837400
H561	H56	0.180700	0.784900	0.287600
C571	C57	0.181500	0.805400	0.578100
C581	C58	0.225200	0.784300	0.701000
C591	C59	0.108500	0.866000	0.656500
C601	C60	0.208500	0.770500	0.374000
O611	O61	0.071200	0.874000	0.539100
O621	O62	0.088800	0.899400	0.843700
H641	H64	0.708800	0.308100	0.837400
H651	H65	0.680700	0.284900	0.287600
C661	C66	0.681500	0.305400	0.578100
C671	C67	0.725200	0.284300	0.701000
C681	C68	0.608500	0.366000	0.656500
C691	C69	0.708500	0.270500	0.374000
O701	O70	0.571200	0.374000	0.539100
O711	O71	0.588800	0.399400	0.843700
Fe731	Fe73	0.000000	0.000000	0.000000
Fe741	Fe74	0.500000	0.500000	0.000000
Fe751	Fe75	0.000000	0.000000	0.500000
Fe761	Fe76	0.500000	0.500000	0.500000
O771	O77	0.000000	0.081800	0.750000
O781	O78	0.500000	0.581800	0.750000
O791	O79	0.000000	0.918200	0.250000
O801	O80	0.500000	0.418200	0.250000
