data_YAXBEF_clean_PM
_symmetry_space_group_name_H-M	'P1'
_cell_length_a	7.497000
_cell_length_b	13.154000
_cell_length_c	18.206000
_cell_angle_alpha	90.000000
_cell_angle_beta	90.000000
_cell_angle_gamma	90.000000
_symmetry_Int_Tables_number 1

loop_
_symmetry_equiv_pos_as_xyz
'x,y,z'

loop_
_atom_site_label
_atom_site_type_symbol
_atom_site_fract_x
_atom_site_fract_y
_atom_site_fract_z
Zn11	Zn1	0.043020	0.624240	0.036040
Zn21	Zn2	0.043170	0.371610	0.038360
Zn31	Zn3	0.600230	0.371880	0.058620
Zn41	Zn4	0.597980	0.625200	0.056090
Zn51	Zn5	0.658670	0.503300	0.832750
P11	P1	0.791700	0.304300	0.914240
P21	P2	0.338140	0.495600	0.959960
P31	P3	0.790000	0.699800	0.914340
P41	P4	0.855120	0.499600	0.157190
O11	O1	0.807400	0.386700	0.856100
O21	O2	0.804600	0.351600	0.991500
O31	O3	0.947300	0.232000	0.905400
O41	O4	0.607500	0.250300	0.909100
O51	O5	0.481000	0.496500	0.022800
O61	O6	0.226500	0.398800	0.968300
O71	O7	0.226800	0.591300	0.964600
O81	O8	0.434100	0.494200	0.885820
O91	O9	0.805500	0.643600	0.991100
O101	O10	0.801200	0.623300	0.852100
O111	O11	0.609100	0.752800	0.913100
O121	O12	0.941700	0.775600	0.908300
O131	O13	0.010900	0.497400	0.098590
O141	O14	0.936100	0.503100	0.233280
O151	O15	0.741500	0.593200	0.142800
O161	O16	0.747700	0.401600	0.144900
Zn61	Zn6	0.456980	0.375760	0.536040
Zn71	Zn7	0.456830	0.628390	0.538360
Zn81	Zn8	0.899770	0.628120	0.558620
Zn91	Zn9	0.902020	0.374800	0.556090
Zn101	Zn10	0.841330	0.496700	0.332750
P51	P5	0.708300	0.695700	0.414240
P61	P6	0.161860	0.504400	0.459960
P71	P7	0.710000	0.300200	0.414340
P81	P8	0.644880	0.500400	0.657190
O171	O17	0.692600	0.613300	0.356100
O181	O18	0.695400	0.648400	0.491500
O191	O19	0.552700	0.768000	0.405400
O201	O20	0.892500	0.749700	0.409100
O211	O21	0.019000	0.503500	0.522800
O221	O22	0.273500	0.601200	0.468300
O231	O23	0.273200	0.408700	0.464600
O241	O24	0.065900	0.505800	0.385820
O251	O25	0.694500	0.356400	0.491100
O261	O26	0.698800	0.376700	0.352100
O271	O27	0.890900	0.247200	0.413100
O281	O28	0.558300	0.224400	0.408300
O291	O29	0.489100	0.502600	0.598590
O301	O30	0.563900	0.496900	0.733280
O311	O31	0.758500	0.406800	0.642800
O321	O32	0.752300	0.598400	0.644900
Zn111	Zn11	0.956980	0.124240	0.463960
Zn121	Zn12	0.956830	0.871610	0.461640
Zn131	Zn13	0.399770	0.871880	0.441380
Zn141	Zn14	0.402020	0.125200	0.443910
Zn151	Zn15	0.341330	0.003300	0.667250
P91	P9	0.208300	0.804300	0.585760
P101	P10	0.661860	0.995600	0.540040
P111	P11	0.210000	0.199800	0.585660
P121	P12	0.144880	0.999600	0.342810
O331	O33	0.192600	0.886700	0.643900
O341	O34	0.195400	0.851600	0.508500
O351	O35	0.052700	0.732000	0.594600
O361	O36	0.392500	0.750300	0.590900
O371	O37	0.519000	0.996500	0.477200
O381	O38	0.773500	0.898800	0.531700
O391	O39	0.773200	0.091300	0.535400
O401	O40	0.565900	0.994200	0.614180
O411	O41	0.194500	0.143600	0.508900
O421	O42	0.198800	0.123300	0.647900
O431	O43	0.390900	0.252800	0.586900
O441	O44	0.058300	0.275600	0.591700
O451	O45	0.989100	0.997400	0.401410
O461	O46	0.063900	0.003100	0.266720
O471	O47	0.258500	0.093200	0.357200
O481	O48	0.252300	0.901600	0.355100
Zn161	Zn16	0.543020	0.875760	0.963960
Zn171	Zn17	0.543170	0.128390	0.961640
Zn181	Zn18	0.100230	0.128120	0.941380
Zn191	Zn19	0.097980	0.874800	0.943910
Zn201	Zn20	0.158670	0.996700	0.167250
P131	P13	0.291700	0.195700	0.085760
P141	P14	0.838140	0.004400	0.040040
P151	P15	0.290000	0.800200	0.085660
P161	P16	0.355120	0.000400	0.842810
O491	O49	0.307400	0.113300	0.143900
O501	O50	0.304600	0.148400	0.008500
O511	O51	0.447300	0.268000	0.094600
O521	O52	0.107500	0.249700	0.090900
O531	O53	0.981000	0.003500	0.977200
O541	O54	0.726500	0.101200	0.031700
O551	O55	0.726800	0.908700	0.035400
O561	O56	0.934100	0.005800	0.114180
O571	O57	0.305500	0.856400	0.008900
O581	O58	0.301200	0.876700	0.147900
O591	O59	0.109100	0.747200	0.086900
O601	O60	0.441700	0.724400	0.091700
O611	O61	0.510900	0.002600	0.901410
O621	O62	0.436100	0.996900	0.766720
O631	O63	0.241500	0.906800	0.857200
O641	O64	0.247700	0.098400	0.855100
