data_YAYPOF_clean_PM
_symmetry_space_group_name_H-M	'P1'
_cell_length_a	11.248000
_cell_length_b	20.873400
_cell_length_c	14.664100
_cell_angle_alpha	90.000000
_cell_angle_beta	105.318000
_cell_angle_gamma	90.000000
_symmetry_Int_Tables_number 1

loop_
_symmetry_equiv_pos_as_xyz
'x,y,z'

loop_
_atom_site_label
_atom_site_type_symbol
_atom_site_fract_x
_atom_site_fract_y
_atom_site_fract_z
U11	U1	0.777220	0.225220	0.558790
U21	U2	0.874670	0.014830	0.372840
U31	U3	0.923440	0.418890	0.536330
P11	P1	0.601860	0.115960	0.385370
P21	P2	0.204420	0.446940	0.628240
P31	P3	0.126370	0.946300	0.376400
P41	P4	0.617110	0.364350	0.424870
F11	F1	0.866500	0.326950	0.594400
O11	O1	0.619100	0.161240	0.468300
O21	O2	0.706000	0.069670	0.389200
O31	O3	0.580500	0.157860	0.292800
O41	O4	0.266200	0.482460	0.717000
O51	O5	0.126900	0.388750	0.643100
O61	O6	0.107800	0.487800	0.557400
O71	O7	0.015600	0.962080	0.291400
O81	O8	0.079000	0.969480	0.460600
O91	O9	0.164500	0.877490	0.379900
O101	O10	0.557400	0.366610	0.315200
O111	O11	0.655100	0.296060	0.449000
O121	O12	0.720700	0.412970	0.454100
C11	C1	0.465100	0.069800	0.376600
C21	C2	0.356800	0.097600	0.381800
H11	H1	0.352300	0.142900	0.386600
C31	C3	0.253700	0.061000	0.380400
H21	H2	0.179800	0.081500	0.384400
C41	C4	0.257400	0.994800	0.373200
C51	C5	0.365100	0.966800	0.368700
H31	H3	0.369800	0.921400	0.364700
C61	C6	0.468600	0.004000	0.370100
H41	H4	0.542700	0.983600	0.366400
C71	C7	0.319200	0.422800	0.570600
C81	C8	0.287500	0.392100	0.484600
H51	H5	0.203300	0.382700	0.455800
C91	C9	0.376800	0.374500	0.439000
H61	H6	0.352900	0.353500	0.379400
C101	C10	0.499600	0.387300	0.479900
C111	C11	0.532200	0.418800	0.565600
H71	H7	0.616400	0.428600	0.593800
C121	C12	0.443300	0.436500	0.611600
H81	H8	0.467200	0.457900	0.670800
U41	U4	0.722780	0.725220	0.941210
U51	U5	0.625330	0.514830	0.127160
U61	U6	0.576560	0.918890	0.963670
P51	P5	0.898140	0.615960	0.114630
P61	P6	0.295580	0.946940	0.871760
P71	P7	0.373630	0.446300	0.123600
P81	P8	0.882890	0.864350	0.075130
F21	F2	0.633500	0.826950	0.905600
O131	O13	0.880900	0.661240	0.031700
O141	O14	0.794000	0.569670	0.110800
O151	O15	0.919500	0.657860	0.207200
O161	O16	0.233800	0.982460	0.783000
O171	O17	0.373100	0.888750	0.856900
O181	O18	0.392200	0.987800	0.942600
O191	O19	0.484400	0.462080	0.208600
O201	O20	0.421000	0.469480	0.039400
O211	O21	0.335500	0.377490	0.120100
O221	O22	0.942600	0.866610	0.184800
O231	O23	0.844900	0.796060	0.051000
O241	O24	0.779300	0.912970	0.045900
C131	C13	0.034900	0.569800	0.123400
C141	C14	0.143200	0.597600	0.118200
H91	H9	0.147700	0.642900	0.113400
C151	C15	0.246300	0.561000	0.119600
H101	H10	0.320200	0.581500	0.115600
C161	C16	0.242600	0.494800	0.126800
C171	C17	0.134900	0.466800	0.131300
H111	H11	0.130200	0.421400	0.135300
C181	C18	0.031400	0.504000	0.129900
H121	H12	0.957300	0.483600	0.133600
C191	C19	0.180800	0.922800	0.929400
C201	C20	0.212500	0.892100	0.015400
H131	H13	0.296700	0.882700	0.044200
C211	C21	0.123200	0.874500	0.061000
H141	H14	0.147100	0.853500	0.120600
C221	C22	0.000400	0.887300	0.020100
C231	C23	0.967800	0.918800	0.934400
H151	H15	0.883600	0.928600	0.906200
C241	C24	0.056700	0.936500	0.888400
H161	H16	0.032800	0.957900	0.829200
U71	U7	0.222780	0.774780	0.441210
U81	U8	0.125330	0.985170	0.627160
U91	U9	0.076560	0.581110	0.463670
P91	P9	0.398140	0.884040	0.614630
P101	P10	0.795580	0.553060	0.371760
P111	P11	0.873630	0.053700	0.623600
P121	P12	0.382890	0.635650	0.575130
F31	F3	0.133500	0.673050	0.405600
O251	O25	0.380900	0.838760	0.531700
O261	O26	0.294000	0.930330	0.610800
O271	O27	0.419500	0.842140	0.707200
O281	O28	0.733800	0.517540	0.283000
O291	O29	0.873100	0.611250	0.356900
O301	O30	0.892200	0.512200	0.442600
O311	O31	0.984400	0.037920	0.708600
O321	O32	0.921000	0.030520	0.539400
O331	O33	0.835500	0.122510	0.620100
O341	O34	0.442600	0.633390	0.684800
O351	O35	0.344900	0.703940	0.551000
O361	O36	0.279300	0.587030	0.545900
C251	C25	0.534900	0.930200	0.623400
C261	C26	0.643200	0.902400	0.618200
H171	H17	0.647700	0.857100	0.613400
C271	C27	0.746300	0.939000	0.619600
H181	H18	0.820200	0.918500	0.615600
C281	C28	0.742600	0.005200	0.626800
C291	C29	0.634900	0.033200	0.631300
H191	H19	0.630200	0.078600	0.635300
C301	C30	0.531400	0.996000	0.629900
H201	H20	0.457300	0.016400	0.633600
C311	C31	0.680800	0.577200	0.429400
C321	C32	0.712500	0.607900	0.515400
H211	H21	0.796700	0.617300	0.544200
C331	C33	0.623200	0.625500	0.561000
H221	H22	0.647100	0.646500	0.620600
C341	C34	0.500400	0.612700	0.520100
C351	C35	0.467800	0.581200	0.434400
H231	H23	0.383600	0.571400	0.406200
C361	C36	0.556700	0.563500	0.388400
H241	H24	0.532800	0.542100	0.329200
U101	U10	0.277220	0.274780	0.058790
U111	U11	0.374670	0.485170	0.872840
U121	U12	0.423440	0.081110	0.036330
P131	P13	0.101860	0.384040	0.885370
P141	P14	0.704420	0.053060	0.128240
P151	P15	0.626370	0.553700	0.876400
P161	P16	0.117110	0.135650	0.924870
F41	F4	0.366500	0.173050	0.094400
O371	O37	0.119100	0.338760	0.968300
O381	O38	0.206000	0.430330	0.889200
O391	O39	0.080500	0.342140	0.792800
O401	O40	0.766200	0.017540	0.217000
O411	O41	0.626900	0.111250	0.143100
O421	O42	0.607800	0.012200	0.057400
O431	O43	0.515600	0.537920	0.791400
O441	O44	0.579000	0.530520	0.960600
O451	O45	0.664500	0.622510	0.879900
O461	O46	0.057400	0.133390	0.815200
O471	O47	0.155100	0.203940	0.949000
O481	O48	0.220700	0.087030	0.954100
C371	C37	0.965100	0.430200	0.876600
C381	C38	0.856800	0.402400	0.881800
H251	H25	0.852300	0.357100	0.886600
C391	C39	0.753700	0.439000	0.880400
H261	H26	0.679800	0.418500	0.884400
C401	C40	0.757400	0.505200	0.873200
C411	C41	0.865100	0.533200	0.868700
H271	H27	0.869800	0.578600	0.864700
C421	C42	0.968600	0.496000	0.870100
H281	H28	0.042700	0.516400	0.866400
C431	C43	0.819200	0.077200	0.070600
C441	C44	0.787500	0.107900	0.984600
H291	H29	0.703300	0.117300	0.955800
C451	C45	0.876800	0.125500	0.939000
H301	H30	0.852900	0.146500	0.879400
C461	C46	0.999600	0.112700	0.979900
C471	C47	0.032200	0.081200	0.065600
H311	H31	0.116400	0.071400	0.093800
C481	C48	0.943300	0.063500	0.111600
H321	H32	0.967200	0.042100	0.170800
