data_YAZYEF_clean_PM
_symmetry_space_group_name_H-M	'P1'
_cell_length_a	6.810500
_cell_length_b	13.190000
_cell_length_c	16.380800
_cell_angle_alpha	113.741000
_cell_angle_beta	100.532000
_cell_angle_gamma	90.000000
_symmetry_Int_Tables_number 1

loop_
_symmetry_equiv_pos_as_xyz
'x,y,z'

loop_
_atom_site_label
_atom_site_type_symbol
_atom_site_fract_x
_atom_site_fract_y
_atom_site_fract_z
La11	La1	0.272090	0.302030	0.197600
La21	La2	0.227910	0.104430	0.802400
La31	La3	0.727910	0.697970	0.802400
La41	La4	0.772090	0.895570	0.197600
H11	H1	0.190700	0.433700	0.391400
H21	H2	0.505300	0.219400	0.654400
H31	H3	0.246700	0.519700	0.186800
H41	H4	0.363900	0.462900	0.532200
H51	H5	0.282900	0.082500	0.439600
H61	H6	0.857900	0.354500	0.865000
H71	H7	0.309300	0.042300	0.608600
H81	H8	0.994700	0.565000	0.345600
H91	H9	0.253300	0.332900	0.813200
H101	H10	0.136100	0.930700	0.467800
H111	H11	0.217100	0.642900	0.560400
H121	H12	0.642100	0.489500	0.135000
H131	H13	0.809300	0.566300	0.608600
H141	H14	0.494700	0.780600	0.345600
H151	H15	0.753300	0.480300	0.813200
H161	H16	0.636100	0.537100	0.467800
H171	H17	0.717100	0.917500	0.560400
H181	H18	0.142100	0.645500	0.135000
H191	H19	0.690700	0.957700	0.391400
H201	H20	0.005300	0.435000	0.654400
H211	H21	0.746700	0.667100	0.186800
H221	H22	0.863900	0.069300	0.532200
H231	H23	0.782900	0.357100	0.439600
H241	H24	0.357900	0.510500	0.865000
C11	C1	0.233300	0.204180	0.395360
C21	C2	0.259000	0.320350	0.424900
C31	C3	0.348800	0.386240	0.513480
C41	C4	0.417900	0.340440	0.576080
C51	C5	0.389900	0.225610	0.547420
C61	C6	0.299500	0.158970	0.457940
C71	C7	0.135900	0.126720	0.300040
C81	C8	0.525000	0.414620	0.670240
C91	C9	0.003200	0.389600	0.992600
C101	C10	0.089800	0.479220	0.075240
C111	C11	0.915400	0.412930	0.919460
C121	C12	0.012100	0.271080	0.978160
C131	C13	0.266700	0.808820	0.604640
C141	C14	0.241000	0.895450	0.575100
C151	C15	0.151200	0.872760	0.486520
C161	C16	0.082100	0.764360	0.423920
C171	C17	0.110100	0.678190	0.452580
C181	C18	0.200500	0.701030	0.542060
C191	C19	0.364100	0.826680	0.699960
C201	C20	0.975000	0.744380	0.329760
C211	C21	0.496800	0.397000	0.007400
C221	C22	0.410200	0.403980	0.924760
C231	C23	0.584600	0.493470	0.080540
C241	C24	0.487900	0.292920	0.021840
C251	C25	0.766700	0.795820	0.604640
C261	C26	0.741000	0.679650	0.575100
C271	C27	0.651200	0.613760	0.486520
C281	C28	0.582100	0.659560	0.423920
C291	C29	0.610100	0.774390	0.452580
C301	C30	0.700500	0.841030	0.542060
C311	C31	0.864100	0.873280	0.699960
C321	C32	0.475000	0.585380	0.329760
C331	C33	0.996800	0.610400	0.007400
C341	C34	0.910200	0.520780	0.924760
C351	C35	0.084600	0.587070	0.080540
C361	C36	0.987900	0.728920	0.021840
C371	C37	0.733300	0.191180	0.395360
C381	C38	0.759000	0.104550	0.424900
C391	C39	0.848800	0.127240	0.513480
C401	C40	0.917900	0.235640	0.576080
C411	C41	0.889900	0.321810	0.547420
C421	C42	0.799500	0.298970	0.457940
C431	C43	0.635900	0.173320	0.300040
C441	C44	0.025000	0.255620	0.670240
C451	C45	0.503200	0.603000	0.992600
C461	C46	0.589800	0.596020	0.075240
C471	C47	0.415400	0.506530	0.919460
C481	C48	0.512100	0.707080	0.978160
O11	O1	0.120100	0.159890	0.237100
O21	O2	0.073300	0.030550	0.287400
O31	O3	0.599900	0.368360	0.722120
O41	O4	0.538300	0.517590	0.692760
O51	O5	0.189500	0.366080	0.364020
O61	O6	0.447500	0.173540	0.604500
O71	O7	0.059300	0.244990	0.044880
O81	O8	0.972100	0.198660	0.896260
O91	O9	0.184200	0.461900	0.148760
O101	O10	0.379900	0.922790	0.762900
O111	O11	0.426700	0.743150	0.712600
O121	O12	0.900100	0.646240	0.277880
O131	O13	0.961700	0.824830	0.307240
O141	O14	0.310500	0.002060	0.635980
O151	O15	0.052500	0.569040	0.395500
O161	O16	0.440700	0.200110	0.955120
O171	O17	0.527900	0.302400	0.103740
O181	O18	0.315800	0.313140	0.851240
O191	O19	0.879900	0.840110	0.762900
O201	O20	0.926700	0.969450	0.712600
O211	O21	0.400100	0.631640	0.277880
O221	O22	0.461700	0.482410	0.307240
O231	O23	0.810500	0.633920	0.635980
O241	O24	0.552500	0.826460	0.395500
O251	O25	0.940700	0.755010	0.955120
O261	O26	0.027900	0.801340	0.103740
O271	O27	0.815800	0.538100	0.851240
O281	O28	0.620100	0.077210	0.237100
O291	O29	0.573300	0.256850	0.287400
O301	O30	0.099900	0.353760	0.722120
O311	O31	0.038300	0.175170	0.692760
O321	O32	0.689500	0.997940	0.364020
O331	O33	0.947500	0.430960	0.604500
O341	O34	0.559300	0.799890	0.044880
O351	O35	0.472100	0.697600	0.896260
O361	O36	0.684200	0.686860	0.148760
