data_YAZYIJ_clean_PM
_symmetry_space_group_name_H-M	'P1'
_cell_length_a	6.795100
_cell_length_b	13.113000
_cell_length_c	16.298900
_cell_angle_alpha	113.720000
_cell_angle_beta	100.584000
_cell_angle_gamma	90.000000
_symmetry_Int_Tables_number 1

loop_
_symmetry_equiv_pos_as_xyz
'x,y,z'

loop_
_atom_site_label
_atom_site_type_symbol
_atom_site_fract_x
_atom_site_fract_y
_atom_site_fract_z
Pr11	Pr1	0.272050	0.300960	0.196540
Pr21	Pr2	0.227950	0.104420	0.803460
Pr31	Pr3	0.727950	0.699040	0.803460
Pr41	Pr4	0.772050	0.895580	0.196540
H11	H1	0.190800	0.434300	0.388400
H21	H2	0.504500	0.220700	0.654200
H31	H3	0.249800	0.518900	0.187600
H41	H4	0.362300	0.465700	0.531800
H51	H5	0.279900	0.081500	0.438400
H61	H6	0.858200	0.354200	0.863400
H71	H7	0.309200	0.045900	0.611600
H81	H8	0.995500	0.566500	0.345800
H91	H9	0.250200	0.331300	0.812400
H101	H10	0.137700	0.933900	0.468200
H111	H11	0.220100	0.643100	0.561600
H121	H12	0.641800	0.490800	0.136600
H131	H13	0.809200	0.565700	0.611600
H141	H14	0.495500	0.779300	0.345800
H151	H15	0.750200	0.481100	0.812400
H161	H16	0.637700	0.534300	0.468200
H171	H17	0.720100	0.918500	0.561600
H181	H18	0.141800	0.645800	0.136600
H191	H19	0.690800	0.954100	0.388400
H201	H20	0.004500	0.433500	0.654200
H211	H21	0.749800	0.668700	0.187600
H221	H22	0.862300	0.066100	0.531800
H231	H23	0.779900	0.356900	0.438400
H241	H24	0.358200	0.509200	0.863400
C11	C1	0.232800	0.203900	0.393800
C21	C2	0.259200	0.321600	0.423800
C31	C3	0.348000	0.388600	0.512800
C41	C4	0.417400	0.341300	0.575600
C51	C5	0.389000	0.225300	0.546800
C61	C6	0.297800	0.158400	0.456800
C71	C7	0.132800	0.126500	0.298000
C81	C8	0.522800	0.415900	0.669800
C91	C9	0.002400	0.389100	0.992600
C101	C10	0.091100	0.478500	0.075800
C111	C11	0.914700	0.413100	0.918600
C121	C12	0.012900	0.269900	0.978400
C131	C13	0.267200	0.810100	0.606200
C141	C14	0.240800	0.897800	0.576200
C151	C15	0.152000	0.875800	0.487200
C161	C16	0.082600	0.765700	0.424400
C171	C17	0.111000	0.678500	0.453200
C181	C18	0.202200	0.701600	0.543200
C191	C19	0.367200	0.828500	0.702000
C201	C20	0.977200	0.746100	0.330200
C211	C21	0.497600	0.396500	0.007400
C221	C22	0.408900	0.402700	0.924200
C231	C23	0.585300	0.494500	0.081400
C241	C24	0.487100	0.291500	0.021600
C251	C25	0.767200	0.796100	0.606200
C261	C26	0.740800	0.678400	0.576200
C271	C27	0.652000	0.611400	0.487200
C281	C28	0.582600	0.658700	0.424400
C291	C29	0.611000	0.774700	0.453200
C301	C30	0.702200	0.841600	0.543200
C311	C31	0.867200	0.873500	0.702000
C321	C32	0.477200	0.584100	0.330200
C331	C33	0.997600	0.610900	0.007400
C341	C34	0.908900	0.521500	0.924200
C351	C35	0.085300	0.586900	0.081400
C361	C36	0.987100	0.730100	0.021600
C371	C37	0.732800	0.189900	0.393800
C381	C38	0.759200	0.102200	0.423800
C391	C39	0.848000	0.124200	0.512800
C401	C40	0.917400	0.234300	0.575600
C411	C41	0.889000	0.321500	0.546800
C421	C42	0.797800	0.298400	0.456800
C431	C43	0.632800	0.171500	0.298000
C441	C44	0.022800	0.253900	0.669800
C451	C45	0.502400	0.603500	0.992600
C461	C46	0.591100	0.597300	0.075800
C471	C47	0.414700	0.505500	0.918600
C481	C48	0.512900	0.708500	0.978400
O11	O1	0.117700	0.159500	0.234600
O21	O2	0.067300	0.030060	0.285720
O31	O3	0.598000	0.369770	0.722540
O41	O4	0.536900	0.520060	0.693520
O51	O5	0.190300	0.366260	0.361520
O61	O6	0.446600	0.174270	0.604340
O71	O7	0.061300	0.243330	0.044860
O81	O8	0.973200	0.196590	0.895580
O91	O9	0.186900	0.460780	0.149160
O101	O10	0.382300	0.924900	0.765400
O111	O11	0.432700	0.744340	0.714280
O121	O12	0.902000	0.647230	0.277460
O131	O13	0.963100	0.826540	0.306480
O141	O14	0.309700	0.004740	0.638480
O151	O15	0.053400	0.569930	0.395660
O161	O16	0.438700	0.198470	0.955140
O171	O17	0.526800	0.301010	0.104420
O181	O18	0.313100	0.311620	0.850840
O191	O19	0.882300	0.840500	0.765400
O201	O20	0.932700	0.969940	0.714280
O211	O21	0.402000	0.630230	0.277460
O221	O22	0.463100	0.479940	0.306480
O231	O23	0.809700	0.633740	0.638480
O241	O24	0.553400	0.825730	0.395660
O251	O25	0.938700	0.756670	0.955140
O261	O26	0.026800	0.803410	0.104420
O271	O27	0.813100	0.539220	0.850840
O281	O28	0.617700	0.075100	0.234600
O291	O29	0.567300	0.255660	0.285720
O301	O30	0.098000	0.352770	0.722540
O311	O31	0.036900	0.173460	0.693520
O321	O32	0.690300	0.995260	0.361520
O331	O33	0.946600	0.430070	0.604340
O341	O34	0.561300	0.801530	0.044860
O351	O35	0.473200	0.698990	0.895580
O361	O36	0.686900	0.688380	0.149160
