data_YAZYUU_clean_PM
_symmetry_space_group_name_H-M	'P1'
_cell_length_a	23.301900
_cell_length_b	23.301900
_cell_length_c	23.301900
_cell_angle_alpha	90.000000
_cell_angle_beta	90.000000
_cell_angle_gamma	90.000000
_symmetry_Int_Tables_number 1

loop_
_symmetry_equiv_pos_as_xyz
'x,y,z'

loop_
_atom_site_label
_atom_site_type_symbol
_atom_site_fract_x
_atom_site_fract_y
_atom_site_fract_z
Cu11	Cu1	0.267910	0.144920	0.935500
O11	O1	0.206500	0.104200	0.971200
N11	N1	0.340700	0.173600	0.903600
N21	N2	0.284000	0.083600	0.880700
C11	C1	0.257100	0.034700	0.877100
H11	H1	0.267300	0.009600	0.846600
C21	C2	0.213000	0.015900	0.916400
C31	C3	0.190100	0.050500	0.961800
C41	C4	0.146800	0.027900	0.997000
H21	H2	0.130500	0.050700	0.026500
C51	C5	0.127500	0.971100	0.988300
H31	H3	0.099300	0.955600	0.013300
C61	C6	0.148700	0.937800	0.944600
H41	H4	0.135000	0.899800	0.939000
C71	C7	0.190900	0.960700	0.908600
H51	H5	0.204900	0.938000	0.877700
Cu21	Cu2	0.217300	0.158360	0.051510
Cl11	Cl1	0.312200	0.133900	0.058900
O21	O2	0.311300	0.141200	0.047300
O31	O3	0.291400	0.013100	0.739800
N31	N3	0.388300	0.886700	0.683300
N41	N4	0.297700	0.933700	0.647100
C81	C8	0.254200	0.963600	0.628300
H61	H6	0.408700	0.739700	0.545600
C91	C9	0.226600	0.009200	0.659200
C101	C10	0.245600	0.032400	0.712600
C111	C11	0.263300	0.714100	0.421700
H71	H7	0.228700	0.727100	0.404600
C121	C12	0.288900	0.665000	0.401400
H81	H8	0.270400	0.643200	0.372400
C131	C13	0.343000	0.646600	0.423500
H91	H9	0.362300	0.614300	0.407600
C141	C14	0.366300	0.676600	0.468200
H101	H10	0.401100	0.663200	0.484600
Cu31	Cu3	0.232090	0.855080	0.435500
O41	O4	0.293500	0.895800	0.471200
N51	N5	0.159300	0.826400	0.403600
N61	N6	0.216000	0.916400	0.380700
C151	C15	0.242900	0.965300	0.377100
H111	H11	0.232700	0.990400	0.346600
C161	C16	0.287000	0.984100	0.416400
C171	C17	0.309900	0.949500	0.461800
C181	C18	0.353200	0.972100	0.497000
H121	H12	0.369500	0.949300	0.526500
C191	C19	0.372500	0.028900	0.488300
H131	H13	0.400700	0.044400	0.513300
C201	C20	0.351300	0.062200	0.444600
H141	H14	0.365000	0.100200	0.439000
C211	C21	0.309100	0.039300	0.408600
H151	H15	0.295100	0.062000	0.377700
Cu41	Cu4	0.282700	0.841640	0.551510
Cl21	Cl2	0.187800	0.866100	0.558900
O51	O5	0.188700	0.858800	0.547300
O61	O6	0.208600	0.986900	0.239800
N71	N7	0.111700	0.113300	0.183300
N81	N8	0.202300	0.066300	0.147100
C221	C22	0.245800	0.036400	0.128300
H161	H16	0.091300	0.260300	0.045600
C231	C23	0.273400	0.990800	0.159200
C241	C24	0.254400	0.967600	0.212600
C251	C25	0.236700	0.285900	0.921700
H171	H17	0.271300	0.272900	0.904600
C261	C26	0.211100	0.335000	0.901400
H181	H18	0.229600	0.356800	0.872400
C271	C27	0.157000	0.353400	0.923500
H191	H19	0.137700	0.385700	0.907600
C281	C28	0.133700	0.323400	0.968200
H201	H20	0.098900	0.336800	0.984600
Cu51	Cu5	0.732090	0.644920	0.564500
O71	O7	0.793500	0.604200	0.528800
N91	N9	0.659300	0.673600	0.596400
N101	N10	0.716000	0.583600	0.619300
C291	C29	0.742900	0.534700	0.622900
H211	H21	0.732700	0.509600	0.653400
C301	C30	0.787000	0.515900	0.583600
C311	C31	0.809900	0.550500	0.538200
C321	C32	0.853200	0.527900	0.503000
H221	H22	0.869500	0.550700	0.473500
C331	C33	0.872500	0.471100	0.511700
H231	H23	0.900700	0.455600	0.486700
C341	C34	0.851300	0.437800	0.555400
H241	H24	0.865000	0.399800	0.561000
C351	C35	0.809100	0.460700	0.591400
H251	H25	0.795100	0.438000	0.622300
Cu61	Cu6	0.782700	0.658360	0.448490
Cl31	Cl3	0.687800	0.633900	0.441100
O81	O8	0.688700	0.641200	0.452700
O91	O9	0.708600	0.513100	0.760200
N111	N11	0.611700	0.386700	0.816700
N121	N12	0.702300	0.433700	0.852900
C361	C36	0.745800	0.463600	0.871700
H261	H26	0.591300	0.239700	0.954400
C371	C37	0.773400	0.509200	0.840800
C381	C38	0.754400	0.532400	0.787400
C391	C39	0.736700	0.214100	0.078300
H271	H27	0.771300	0.227100	0.095400
C401	C40	0.711100	0.165000	0.098600
H281	H28	0.729600	0.143200	0.127600
C411	C41	0.657000	0.146600	0.076500
H291	H29	0.637700	0.114300	0.092400
C421	C42	0.633700	0.176600	0.031800
H301	H30	0.598900	0.163200	0.015400
Cu71	Cu7	0.767910	0.355080	0.064500
O101	O10	0.706500	0.395800	0.028800
N131	N13	0.840700	0.326400	0.096400
N141	N14	0.784000	0.416400	0.119300
C431	C43	0.757100	0.465300	0.122900
H311	H31	0.767300	0.490400	0.153400
C441	C44	0.713000	0.484100	0.083600
C451	C45	0.690100	0.449500	0.038200
C461	C46	0.646800	0.472100	0.003000
H321	H32	0.630500	0.449300	0.973500
C471	C47	0.627500	0.528900	0.011700
H331	H33	0.599300	0.544400	0.986700
C481	C48	0.648700	0.562200	0.055400
H341	H34	0.635000	0.600200	0.061000
C491	C49	0.690900	0.539300	0.091400
H351	H35	0.704900	0.562000	0.122300
Cu81	Cu8	0.717300	0.341640	0.948490
Cl41	Cl4	0.812200	0.366100	0.941100
O111	O11	0.811300	0.358800	0.952700
O121	O12	0.791400	0.486900	0.260200
N151	N15	0.888300	0.613300	0.316700
N161	N16	0.797700	0.566300	0.352900
C501	C50	0.754200	0.536400	0.371700
H361	H36	0.908700	0.760300	0.454400
C511	C51	0.726600	0.490800	0.340800
C521	C52	0.745600	0.467600	0.287400
C531	C53	0.763300	0.785900	0.578300
H371	H37	0.728700	0.772900	0.595400
C541	C54	0.788900	0.835000	0.598600
H381	H38	0.770400	0.856800	0.627600
C551	C55	0.843000	0.853400	0.576500
H391	H39	0.862300	0.885700	0.592400
C561	C56	0.866300	0.823400	0.531800
H401	H40	0.901100	0.836800	0.515400
Cu91	Cu9	0.935500	0.267910	0.144920
O131	O13	0.971200	0.206500	0.104200
N171	N17	0.903600	0.340700	0.173600
N181	N18	0.880700	0.284000	0.083600
C571	C57	0.877100	0.257100	0.034700
H411	H41	0.846600	0.267300	0.009600
C581	C58	0.916400	0.213000	0.015900
C591	C59	0.961800	0.190100	0.050500
C601	C60	0.997000	0.146800	0.027900
H421	H42	0.026500	0.130500	0.050700
C611	C61	0.988300	0.127500	0.971100
H431	H43	0.013300	0.099300	0.955600
C621	C62	0.944600	0.148700	0.937800
H441	H44	0.939000	0.135000	0.899800
C631	C63	0.908600	0.190900	0.960700
H451	H45	0.877700	0.204900	0.938000
Cu101	Cu10	0.051510	0.217300	0.158360
Cl51	Cl5	0.058900	0.312200	0.133900
O141	O14	0.047300	0.311300	0.141200
O151	O15	0.739800	0.291400	0.013100
N191	N19	0.683300	0.388300	0.886700
N201	N20	0.647100	0.297700	0.933700
C641	C64	0.628300	0.254200	0.963600
H461	H46	0.545600	0.408700	0.739700
C651	C65	0.659200	0.226600	0.009200
C661	C66	0.712600	0.245600	0.032400
C671	C67	0.421700	0.263300	0.714100
H471	H47	0.404600	0.228700	0.727100
C681	C68	0.401400	0.288900	0.665000
H481	H48	0.372400	0.270400	0.643200
C691	C69	0.423500	0.343000	0.646600
H491	H49	0.407600	0.362300	0.614300
C701	C70	0.468200	0.366300	0.676600
H501	H50	0.484600	0.401100	0.663200
Cu111	Cu11	0.435500	0.232090	0.855080
O161	O16	0.471200	0.293500	0.895800
N211	N21	0.403600	0.159300	0.826400
N221	N22	0.380700	0.216000	0.916400
C711	C71	0.377100	0.242900	0.965300
H511	H51	0.346600	0.232700	0.990400
C721	C72	0.416400	0.287000	0.984100
C731	C73	0.461800	0.309900	0.949500
C741	C74	0.497000	0.353200	0.972100
H521	H52	0.526500	0.369500	0.949300
C751	C75	0.488300	0.372500	0.028900
H531	H53	0.513300	0.400700	0.044400
C761	C76	0.444600	0.351300	0.062200
H541	H54	0.439000	0.365000	0.100200
C771	C77	0.408600	0.309100	0.039300
H551	H55	0.377700	0.295100	0.062000
Cu121	Cu12	0.551510	0.282700	0.841640
Cl61	Cl6	0.558900	0.187800	0.866100
O171	O17	0.547300	0.188700	0.858800
O181	O18	0.239800	0.208600	0.986900
N231	N23	0.183300	0.111700	0.113300
N241	N24	0.147100	0.202300	0.066300
C781	C78	0.128300	0.245800	0.036400
H561	H56	0.045600	0.091300	0.260300
C791	C79	0.159200	0.273400	0.990800
C801	C80	0.212600	0.254400	0.967600
C811	C81	0.921700	0.236700	0.285900
H571	H57	0.904600	0.271300	0.272900
C821	C82	0.901400	0.211100	0.335000
H581	H58	0.872400	0.229600	0.356800
C831	C83	0.923500	0.157000	0.353400
H591	H59	0.907600	0.137700	0.385700
C841	C84	0.968200	0.133700	0.323400
H601	H60	0.984600	0.098900	0.336800
Cu131	Cu13	0.564500	0.732090	0.644920
O191	O19	0.528800	0.793500	0.604200
N251	N25	0.596400	0.659300	0.673600
N261	N26	0.619300	0.716000	0.583600
C851	C85	0.622900	0.742900	0.534700
H611	H61	0.653400	0.732700	0.509600
C861	C86	0.583600	0.787000	0.515900
C871	C87	0.538200	0.809900	0.550500
C881	C88	0.503000	0.853200	0.527900
H621	H62	0.473500	0.869500	0.550700
C891	C89	0.511700	0.872500	0.471100
H631	H63	0.486700	0.900700	0.455600
C901	C90	0.555400	0.851300	0.437800
H641	H64	0.561000	0.865000	0.399800
C911	C91	0.591400	0.809100	0.460700
H651	H65	0.622300	0.795100	0.438000
Cu141	Cu14	0.448490	0.782700	0.658360
Cl71	Cl7	0.441100	0.687800	0.633900
O201	O20	0.452700	0.688700	0.641200
O211	O21	0.760200	0.708600	0.513100
N271	N27	0.816700	0.611700	0.386700
N281	N28	0.852900	0.702300	0.433700
C921	C92	0.871700	0.745800	0.463600
H661	H66	0.954400	0.591300	0.239700
C931	C93	0.840800	0.773400	0.509200
C941	C94	0.787400	0.754400	0.532400
C951	C95	0.078300	0.736700	0.214100
H671	H67	0.095400	0.771300	0.227100
C961	C96	0.098600	0.711100	0.165000
H681	H68	0.127600	0.729600	0.143200
C971	C97	0.076500	0.657000	0.146600
H691	H69	0.092400	0.637700	0.114300
C981	C98	0.031800	0.633700	0.176600
H701	H70	0.015400	0.598900	0.163200
Cu151	Cu15	0.064500	0.767910	0.355080
O221	O22	0.028800	0.706500	0.395800
N291	N29	0.096400	0.840700	0.326400
N301	N30	0.119300	0.784000	0.416400
C991	C99	0.122900	0.757100	0.465300
H711	H71	0.153400	0.767300	0.490400
C1001	C100	0.083600	0.713000	0.484100
C1011	C101	0.038200	0.690100	0.449500
C1021	C102	0.003000	0.646800	0.472100
H721	H72	0.973500	0.630500	0.449300
C1031	C103	0.011700	0.627500	0.528900
H731	H73	0.986700	0.599300	0.544400
C1041	C104	0.055400	0.648700	0.562200
H741	H74	0.061000	0.635000	0.600200
C1051	C105	0.091400	0.690900	0.539300
H751	H75	0.122300	0.704900	0.562000
Cu161	Cu16	0.948490	0.717300	0.341640
Cl81	Cl8	0.941100	0.812200	0.366100
O231	O23	0.952700	0.811300	0.358800
O241	O24	0.260200	0.791400	0.486900
N311	N31	0.316700	0.888300	0.613300
N321	N32	0.352900	0.797700	0.566300
C1061	C106	0.371700	0.754200	0.536400
H761	H76	0.454400	0.908700	0.760300
C1071	C107	0.340800	0.726600	0.490800
C1081	C108	0.287400	0.745600	0.467600
C1091	C109	0.578300	0.763300	0.785900
H771	H77	0.595400	0.728700	0.772900
C1101	C110	0.598600	0.788900	0.835000
H781	H78	0.627600	0.770400	0.856800
C1111	C111	0.576500	0.843000	0.853400
H791	H79	0.592400	0.862300	0.885700
C1121	C112	0.531800	0.866300	0.823400
H801	H80	0.515400	0.901100	0.836800
Cu171	Cu17	0.144920	0.935500	0.267910
O251	O25	0.104200	0.971200	0.206500
N331	N33	0.173600	0.903600	0.340700
N341	N34	0.083600	0.880700	0.284000
C1131	C113	0.034700	0.877100	0.257100
H811	H81	0.009600	0.846600	0.267300
C1141	C114	0.015900	0.916400	0.213000
C1151	C115	0.050500	0.961800	0.190100
C1161	C116	0.027900	0.997000	0.146800
H821	H82	0.050700	0.026500	0.130500
C1171	C117	0.971100	0.988300	0.127500
H831	H83	0.955600	0.013300	0.099300
C1181	C118	0.937800	0.944600	0.148700
H841	H84	0.899800	0.939000	0.135000
C1191	C119	0.960700	0.908600	0.190900
H851	H85	0.938000	0.877700	0.204900
Cu181	Cu18	0.158360	0.051510	0.217300
Cl91	Cl9	0.133900	0.058900	0.312200
O261	O26	0.141200	0.047300	0.311300
O271	O27	0.013100	0.739800	0.291400
N351	N35	0.886700	0.683300	0.388300
N361	N36	0.933700	0.647100	0.297700
C1201	C120	0.963600	0.628300	0.254200
H861	H86	0.739700	0.545600	0.408700
C1211	C121	0.009200	0.659200	0.226600
C1221	C122	0.032400	0.712600	0.245600
C1231	C123	0.714100	0.421700	0.263300
H871	H87	0.727100	0.404600	0.228700
C1241	C124	0.665000	0.401400	0.288900
H881	H88	0.643200	0.372400	0.270400
C1251	C125	0.646600	0.423500	0.343000
H891	H89	0.614300	0.407600	0.362300
C1261	C126	0.676600	0.468200	0.366300
H901	H90	0.663200	0.484600	0.401100
Cu191	Cu19	0.855080	0.435500	0.232090
O281	O28	0.895800	0.471200	0.293500
N371	N37	0.826400	0.403600	0.159300
N381	N38	0.916400	0.380700	0.216000
C1271	C127	0.965300	0.377100	0.242900
H911	H91	0.990400	0.346600	0.232700
C1281	C128	0.984100	0.416400	0.287000
C1291	C129	0.949500	0.461800	0.309900
C1301	C130	0.972100	0.497000	0.353200
H921	H92	0.949300	0.526500	0.369500
C1311	C131	0.028900	0.488300	0.372500
H931	H93	0.044400	0.513300	0.400700
C1321	C132	0.062200	0.444600	0.351300
H941	H94	0.100200	0.439000	0.365000
C1331	C133	0.039300	0.408600	0.309100
H951	H95	0.062000	0.377700	0.295100
Cu201	Cu20	0.841640	0.551510	0.282700
Cl101	Cl10	0.866100	0.558900	0.187800
O291	O29	0.858800	0.547300	0.188700
O301	O30	0.986900	0.239800	0.208600
N391	N39	0.113300	0.183300	0.111700
N401	N40	0.066300	0.147100	0.202300
C1341	C134	0.036400	0.128300	0.245800
H961	H96	0.260300	0.045600	0.091300
C1351	C135	0.990800	0.159200	0.273400
C1361	C136	0.967600	0.212600	0.254400
C1371	C137	0.285900	0.921700	0.236700
H971	H97	0.272900	0.904600	0.271300
C1381	C138	0.335000	0.901400	0.211100
H981	H98	0.356800	0.872400	0.229600
C1391	C139	0.353400	0.923500	0.157000
H991	H99	0.385700	0.907600	0.137700
C1401	C140	0.323400	0.968200	0.133700
H1001	H100	0.336800	0.984600	0.098900
Cu211	Cu21	0.644920	0.564500	0.732090
O311	O31	0.604200	0.528800	0.793500
N411	N41	0.673600	0.596400	0.659300
N421	N42	0.583600	0.619300	0.716000
C1411	C141	0.534700	0.622900	0.742900
H1011	H101	0.509600	0.653400	0.732700
C1421	C142	0.515900	0.583600	0.787000
C1431	C143	0.550500	0.538200	0.809900
C1441	C144	0.527900	0.503000	0.853200
H1021	H102	0.550700	0.473500	0.869500
C1451	C145	0.471100	0.511700	0.872500
H1031	H103	0.455600	0.486700	0.900700
C1461	C146	0.437800	0.555400	0.851300
H1041	H104	0.399800	0.561000	0.865000
C1471	C147	0.460700	0.591400	0.809100
H1051	H105	0.438000	0.622300	0.795100
Cu221	Cu22	0.658360	0.448490	0.782700
Cl111	Cl11	0.633900	0.441100	0.687800
O321	O32	0.641200	0.452700	0.688700
O331	O33	0.513100	0.760200	0.708600
N431	N43	0.386700	0.816700	0.611700
N441	N44	0.433700	0.852900	0.702300
C1481	C148	0.463600	0.871700	0.745800
H1061	H106	0.239700	0.954400	0.591300
C1491	C149	0.509200	0.840800	0.773400
C1501	C150	0.532400	0.787400	0.754400
C1511	C151	0.214100	0.078300	0.736700
H1071	H107	0.227100	0.095400	0.771300
C1521	C152	0.165000	0.098600	0.711100
H1081	H108	0.143200	0.127600	0.729600
C1531	C153	0.146600	0.076500	0.657000
H1091	H109	0.114300	0.092400	0.637700
C1541	C154	0.176600	0.031800	0.633700
H1101	H110	0.163200	0.015400	0.598900
Cu231	Cu23	0.355080	0.064500	0.767910
O341	O34	0.395800	0.028800	0.706500
N451	N45	0.326400	0.096400	0.840700
N461	N46	0.416400	0.119300	0.784000
C1551	C155	0.465300	0.122900	0.757100
H1111	H111	0.490400	0.153400	0.767300
C1561	C156	0.484100	0.083600	0.713000
C1571	C157	0.449500	0.038200	0.690100
C1581	C158	0.472100	0.003000	0.646800
H1121	H112	0.449300	0.973500	0.630500
C1591	C159	0.528900	0.011700	0.627500
H1131	H113	0.544400	0.986700	0.599300
C1601	C160	0.562200	0.055400	0.648700
H1141	H114	0.600200	0.061000	0.635000
C1611	C161	0.539300	0.091400	0.690900
H1151	H115	0.562000	0.122300	0.704900
Cu241	Cu24	0.341640	0.948490	0.717300
Cl121	Cl12	0.366100	0.941100	0.812200
O351	O35	0.358800	0.952700	0.811300
O361	O36	0.486900	0.260200	0.791400
N471	N47	0.613300	0.316700	0.888300
N481	N48	0.566300	0.352900	0.797700
C1621	C162	0.536400	0.371700	0.754200
H1161	H116	0.760300	0.454400	0.908700
C1631	C163	0.490800	0.340800	0.726600
C1641	C164	0.467600	0.287400	0.745600
C1651	C165	0.785900	0.578300	0.763300
H1171	H117	0.772900	0.595400	0.728700
C1661	C166	0.835000	0.598600	0.788900
H1181	H118	0.856800	0.627600	0.770400
C1671	C167	0.853400	0.576500	0.843000
H1191	H119	0.885700	0.592400	0.862300
C1681	C168	0.823400	0.531800	0.866300
H1201	H120	0.836800	0.515400	0.901100
C1691	C169	0.356500	0.143500	0.856500
C1701	C170	0.143500	0.856500	0.356500
C1711	C171	0.643500	0.643500	0.643500
C1721	C172	0.856500	0.356500	0.143500
C1731	C173	0.363400	0.863400	0.636600
C1741	C174	0.136600	0.136600	0.136600
C1751	C175	0.636600	0.363400	0.863400
C1761	C176	0.863400	0.636600	0.363400
Cu251	Cu25	0.732090	0.855080	0.064500
O371	O37	0.793500	0.895800	0.028800
N491	N49	0.659300	0.826400	0.096400
N501	N50	0.716000	0.916400	0.119300
C1771	C177	0.742900	0.965300	0.122900
H1211	H121	0.732700	0.990400	0.153400
C1781	C178	0.787000	0.984100	0.083600
C1791	C179	0.809900	0.949500	0.038200
C1801	C180	0.853200	0.972100	0.003000
H1221	H122	0.869500	0.949300	0.973500
C1811	C181	0.872500	0.028900	0.011700
H1231	H123	0.900700	0.044400	0.986700
C1821	C182	0.851300	0.062200	0.055400
H1241	H124	0.865000	0.100200	0.061000
C1831	C183	0.809100	0.039300	0.091400
H1251	H125	0.795100	0.062000	0.122300
Cu261	Cu26	0.782700	0.841640	0.948490
Cl131	Cl13	0.687800	0.866100	0.941100
O381	O38	0.688700	0.858800	0.952700
O391	O39	0.708600	0.986900	0.260200
N511	N51	0.611700	0.113300	0.316700
N521	N52	0.702300	0.066300	0.352900
C1841	C184	0.745800	0.036400	0.371700
H1261	H126	0.591300	0.260300	0.454400
C1851	C185	0.773400	0.990800	0.340800
C1861	C186	0.754400	0.967600	0.287400
C1871	C187	0.736700	0.285900	0.578300
H1271	H127	0.771300	0.272900	0.595400
C1881	C188	0.711100	0.335000	0.598600
H1281	H128	0.729600	0.356800	0.627600
C1891	C189	0.657000	0.353400	0.576500
H1291	H129	0.637700	0.385700	0.592400
C1901	C190	0.633700	0.323400	0.531800
H1301	H130	0.598900	0.336800	0.515400
Cu271	Cu27	0.767910	0.144920	0.564500
O401	O40	0.706500	0.104200	0.528800
N531	N53	0.840700	0.173600	0.596400
N541	N54	0.784000	0.083600	0.619300
C1911	C191	0.757100	0.034700	0.622900
H1311	H131	0.767300	0.009600	0.653400
C1921	C192	0.713000	0.015900	0.583600
C1931	C193	0.690100	0.050500	0.538200
C1941	C194	0.646800	0.027900	0.503000
H1321	H132	0.630500	0.050700	0.473500
C1951	C195	0.627500	0.971100	0.511700
H1331	H133	0.599300	0.955600	0.486700
C1961	C196	0.648700	0.937800	0.555400
H1341	H134	0.635000	0.899800	0.561000
C1971	C197	0.690900	0.960700	0.591400
H1351	H135	0.704900	0.938000	0.622300
Cu281	Cu28	0.717300	0.158360	0.448490
Cl141	Cl14	0.812200	0.133900	0.441100
O411	O41	0.811300	0.141200	0.452700
O421	O42	0.791400	0.013100	0.760200
N551	N55	0.888300	0.886700	0.816700
N561	N56	0.797700	0.933700	0.852900
C1981	C198	0.754200	0.963600	0.871700
H1361	H136	0.908700	0.739700	0.954400
C1991	C199	0.726600	0.009200	0.840800
C2001	C200	0.745600	0.032400	0.787400
C2011	C201	0.763300	0.714100	0.078300
H1371	H137	0.728700	0.727100	0.095400
C2021	C202	0.788900	0.665000	0.098600
H1381	H138	0.770400	0.643200	0.127600
C2031	C203	0.843000	0.646600	0.076500
H1391	H139	0.862300	0.614300	0.092400
C2041	C204	0.866300	0.676600	0.031800
H1401	H140	0.901100	0.663200	0.015400
Cu291	Cu29	0.267910	0.355080	0.435500
O431	O43	0.206500	0.395800	0.471200
N571	N57	0.340700	0.326400	0.403600
N581	N58	0.284000	0.416400	0.380700
C2051	C205	0.257100	0.465300	0.377100
H1411	H141	0.267300	0.490400	0.346600
C2061	C206	0.213000	0.484100	0.416400
C2071	C207	0.190100	0.449500	0.461800
C2081	C208	0.146800	0.472100	0.497000
H1421	H142	0.130500	0.449300	0.526500
C2091	C209	0.127500	0.528900	0.488300
H1431	H143	0.099300	0.544400	0.513300
C2101	C210	0.148700	0.562200	0.444600
H1441	H144	0.135000	0.600200	0.439000
C2111	C211	0.190900	0.539300	0.408600
H1451	H145	0.204900	0.562000	0.377700
Cu301	Cu30	0.217300	0.341640	0.551510
Cl151	Cl15	0.312200	0.366100	0.558900
O441	O44	0.311300	0.358800	0.547300
O451	O45	0.291400	0.486900	0.239800
N591	N59	0.388300	0.613300	0.183300
N601	N60	0.297700	0.566300	0.147100
C2121	C212	0.254200	0.536400	0.128300
H1461	H146	0.408700	0.760300	0.045600
C2131	C213	0.226600	0.490800	0.159200
C2141	C214	0.245600	0.467600	0.212600
C2151	C215	0.263300	0.785900	0.921700
H1471	H147	0.228700	0.772900	0.904600
C2161	C216	0.288900	0.835000	0.901400
H1481	H148	0.270400	0.856800	0.872400
C2171	C217	0.343000	0.853400	0.923500
H1491	H149	0.362300	0.885700	0.907600
C2181	C218	0.366300	0.823400	0.968200
H1501	H150	0.401100	0.836800	0.984600
Cu311	Cu31	0.232090	0.644920	0.935500
O461	O46	0.293500	0.604200	0.971200
N611	N61	0.159300	0.673600	0.903600
N621	N62	0.216000	0.583600	0.880700
C2191	C219	0.242900	0.534700	0.877100
H1511	H151	0.232700	0.509600	0.846600
C2201	C220	0.287000	0.515900	0.916400
C2211	C221	0.309900	0.550500	0.961800
C2221	C222	0.353200	0.527900	0.997000
H1521	H152	0.369500	0.550700	0.026500
C2231	C223	0.372500	0.471100	0.988300
H1531	H153	0.400700	0.455600	0.013300
C2241	C224	0.351300	0.437800	0.944600
H1541	H154	0.365000	0.399800	0.939000
C2251	C225	0.309100	0.460700	0.908600
H1551	H155	0.295100	0.438000	0.877700
Cu321	Cu32	0.282700	0.658360	0.051510
Cl161	Cl16	0.187800	0.633900	0.058900
O471	O47	0.188700	0.641200	0.047300
O481	O48	0.208600	0.513100	0.739800
N631	N63	0.111700	0.386700	0.683300
N641	N64	0.202300	0.433700	0.647100
C2261	C226	0.245800	0.463600	0.628300
H1561	H156	0.091300	0.239700	0.545600
C2271	C227	0.273400	0.509200	0.659200
C2281	C228	0.254400	0.532400	0.712600
C2291	C229	0.236700	0.214100	0.421700
H1571	H157	0.271300	0.227100	0.404600
C2301	C230	0.211100	0.165000	0.401400
H1581	H158	0.229600	0.143200	0.372400
C2311	C231	0.157000	0.146600	0.423500
H1591	H159	0.137700	0.114300	0.407600
C2321	C232	0.133700	0.176600	0.468200
H1601	H160	0.098900	0.163200	0.484600
Cu331	Cu33	0.064500	0.732090	0.855080
O491	O49	0.028800	0.793500	0.895800
N651	N65	0.096400	0.659300	0.826400
N661	N66	0.119300	0.716000	0.916400
C2331	C233	0.122900	0.742900	0.965300
H1611	H161	0.153400	0.732700	0.990400
C2341	C234	0.083600	0.787000	0.984100
C2351	C235	0.038200	0.809900	0.949500
C2361	C236	0.003000	0.853200	0.972100
H1621	H162	0.973500	0.869500	0.949300
C2371	C237	0.011700	0.872500	0.028900
H1631	H163	0.986700	0.900700	0.044400
C2381	C238	0.055400	0.851300	0.062200
H1641	H164	0.061000	0.865000	0.100200
C2391	C239	0.091400	0.809100	0.039300
H1651	H165	0.122300	0.795100	0.062000
Cu341	Cu34	0.948490	0.782700	0.841640
Cl171	Cl17	0.941100	0.687800	0.866100
O501	O50	0.952700	0.688700	0.858800
O511	O51	0.260200	0.708600	0.986900
N671	N67	0.316700	0.611700	0.113300
N681	N68	0.352900	0.702300	0.066300
C2401	C240	0.371700	0.745800	0.036400
H1661	H166	0.454400	0.591300	0.260300
C2411	C241	0.340800	0.773400	0.990800
C2421	C242	0.287400	0.754400	0.967600
C2431	C243	0.578300	0.736700	0.285900
H1671	H167	0.595400	0.771300	0.272900
C2441	C244	0.598600	0.711100	0.335000
H1681	H168	0.627600	0.729600	0.356800
C2451	C245	0.576500	0.657000	0.353400
H1691	H169	0.592400	0.637700	0.385700
C2461	C246	0.531800	0.633700	0.323400
H1701	H170	0.515400	0.598900	0.336800
Cu351	Cu35	0.564500	0.767910	0.144920
O521	O52	0.528800	0.706500	0.104200
N691	N69	0.596400	0.840700	0.173600
N701	N70	0.619300	0.784000	0.083600
C2471	C247	0.622900	0.757100	0.034700
H1711	H171	0.653400	0.767300	0.009600
C2481	C248	0.583600	0.713000	0.015900
C2491	C249	0.538200	0.690100	0.050500
C2501	C250	0.503000	0.646800	0.027900
H1721	H172	0.473500	0.630500	0.050700
C2511	C251	0.511700	0.627500	0.971100
H1731	H173	0.486700	0.599300	0.955600
C2521	C252	0.555400	0.648700	0.937800
H1741	H174	0.561000	0.635000	0.899800
C2531	C253	0.591400	0.690900	0.960700
H1751	H175	0.622300	0.704900	0.938000
Cu361	Cu36	0.448490	0.717300	0.158360
Cl181	Cl18	0.441100	0.812200	0.133900
O531	O53	0.452700	0.811300	0.141200
O541	O54	0.760200	0.791400	0.013100
N711	N71	0.816700	0.888300	0.886700
N721	N72	0.852900	0.797700	0.933700
C2541	C254	0.871700	0.754200	0.963600
H1761	H176	0.954400	0.908700	0.739700
C2551	C255	0.840800	0.726600	0.009200
C2561	C256	0.787400	0.745600	0.032400
C2571	C257	0.078300	0.763300	0.714100
H1771	H177	0.095400	0.728700	0.727100
C2581	C258	0.098600	0.788900	0.665000
H1781	H178	0.127600	0.770400	0.643200
C2591	C259	0.076500	0.843000	0.646600
H1791	H179	0.092400	0.862300	0.614300
C2601	C260	0.031800	0.866300	0.676600
H1801	H180	0.015400	0.901100	0.663200
Cu371	Cu37	0.435500	0.267910	0.355080
O551	O55	0.471200	0.206500	0.395800
N731	N73	0.403600	0.340700	0.326400
N741	N74	0.380700	0.284000	0.416400
C2611	C261	0.377100	0.257100	0.465300
H1811	H181	0.346600	0.267300	0.490400
C2621	C262	0.416400	0.213000	0.484100
C2631	C263	0.461800	0.190100	0.449500
C2641	C264	0.497000	0.146800	0.472100
H1821	H182	0.526500	0.130500	0.449300
C2651	C265	0.488300	0.127500	0.528900
H1831	H183	0.513300	0.099300	0.544400
C2661	C266	0.444600	0.148700	0.562200
H1841	H184	0.439000	0.135000	0.600200
C2671	C267	0.408600	0.190900	0.539300
H1851	H185	0.377700	0.204900	0.562000
Cu381	Cu38	0.551510	0.217300	0.341640
Cl191	Cl19	0.558900	0.312200	0.366100
O561	O56	0.547300	0.311300	0.358800
O571	O57	0.239800	0.291400	0.486900
N751	N75	0.183300	0.388300	0.613300
N761	N76	0.147100	0.297700	0.566300
C2681	C268	0.128300	0.254200	0.536400
H1861	H186	0.045600	0.408700	0.760300
C2691	C269	0.159200	0.226600	0.490800
C2701	C270	0.212600	0.245600	0.467600
C2711	C271	0.921700	0.263300	0.785900
H1871	H187	0.904600	0.228700	0.772900
C2721	C272	0.901400	0.288900	0.835000
H1881	H188	0.872400	0.270400	0.856800
C2731	C273	0.923500	0.343000	0.853400
H1891	H189	0.907600	0.362300	0.885700
C2741	C274	0.968200	0.366300	0.823400
H1901	H190	0.984600	0.401100	0.836800
Cu391	Cu39	0.935500	0.232090	0.644920
O581	O58	0.971200	0.293500	0.604200
N771	N77	0.903600	0.159300	0.673600
N781	N78	0.880700	0.216000	0.583600
C2751	C275	0.877100	0.242900	0.534700
H1911	H191	0.846600	0.232700	0.509600
C2761	C276	0.916400	0.287000	0.515900
C2771	C277	0.961800	0.309900	0.550500
C2781	C278	0.997000	0.353200	0.527900
H1921	H192	0.026500	0.369500	0.550700
C2791	C279	0.988300	0.372500	0.471100
H1931	H193	0.013300	0.400700	0.455600
C2801	C280	0.944600	0.351300	0.437800
H1941	H194	0.939000	0.365000	0.399800
C2811	C281	0.908600	0.309100	0.460700
H1951	H195	0.877700	0.295100	0.438000
Cu401	Cu40	0.051510	0.282700	0.658360
Cl201	Cl20	0.058900	0.187800	0.633900
O591	O59	0.047300	0.188700	0.641200
O601	O60	0.739800	0.208600	0.513100
N791	N79	0.683300	0.111700	0.386700
N801	N80	0.647100	0.202300	0.433700
C2821	C282	0.628300	0.245800	0.463600
H1961	H196	0.545600	0.091300	0.239700
C2831	C283	0.659200	0.273400	0.509200
C2841	C284	0.712600	0.254400	0.532400
C2851	C285	0.421700	0.236700	0.214100
H1971	H197	0.404600	0.271300	0.227100
C2861	C286	0.401400	0.211100	0.165000
H1981	H198	0.372400	0.229600	0.143200
C2871	C287	0.423500	0.157000	0.146600
H1991	H199	0.407600	0.137700	0.114300
C2881	C288	0.468200	0.133700	0.176600
H2001	H200	0.484600	0.098900	0.163200
Cu411	Cu41	0.855080	0.064500	0.732090
O611	O61	0.895800	0.028800	0.793500
N811	N81	0.826400	0.096400	0.659300
N821	N82	0.916400	0.119300	0.716000
C2891	C289	0.965300	0.122900	0.742900
H2011	H201	0.990400	0.153400	0.732700
C2901	C290	0.984100	0.083600	0.787000
C2911	C291	0.949500	0.038200	0.809900
C2921	C292	0.972100	0.003000	0.853200
H2021	H202	0.949300	0.973500	0.869500
C2931	C293	0.028900	0.011700	0.872500
H2031	H203	0.044400	0.986700	0.900700
C2941	C294	0.062200	0.055400	0.851300
H2041	H204	0.100200	0.061000	0.865000
C2951	C295	0.039300	0.091400	0.809100
H2051	H205	0.062000	0.122300	0.795100
Cu421	Cu42	0.841640	0.948490	0.782700
Cl211	Cl21	0.866100	0.941100	0.687800
O621	O62	0.858800	0.952700	0.688700
O631	O63	0.986900	0.260200	0.708600
N831	N83	0.113300	0.316700	0.611700
N841	N84	0.066300	0.352900	0.702300
C2961	C296	0.036400	0.371700	0.745800
H2061	H206	0.260300	0.454400	0.591300
C2971	C297	0.990800	0.340800	0.773400
C2981	C298	0.967600	0.287400	0.754400
C2991	C299	0.285900	0.578300	0.736700
H2071	H207	0.272900	0.595400	0.771300
C3001	C300	0.335000	0.598600	0.711100
H2081	H208	0.356800	0.627600	0.729600
C3011	C301	0.353400	0.576500	0.657000
H2091	H209	0.385700	0.592400	0.637700
C3021	C302	0.323400	0.531800	0.633700
H2101	H210	0.336800	0.515400	0.598900
Cu431	Cu43	0.144920	0.564500	0.767910
O641	O64	0.104200	0.528800	0.706500
N851	N85	0.173600	0.596400	0.840700
N861	N86	0.083600	0.619300	0.784000
C3031	C303	0.034700	0.622900	0.757100
H2111	H211	0.009600	0.653400	0.767300
C3041	C304	0.015900	0.583600	0.713000
C3051	C305	0.050500	0.538200	0.690100
C3061	C306	0.027900	0.503000	0.646800
H2121	H212	0.050700	0.473500	0.630500
C3071	C307	0.971100	0.511700	0.627500
H2131	H213	0.955600	0.486700	0.599300
C3081	C308	0.937800	0.555400	0.648700
H2141	H214	0.899800	0.561000	0.635000
C3091	C309	0.960700	0.591400	0.690900
H2151	H215	0.938000	0.622300	0.704900
Cu441	Cu44	0.158360	0.448490	0.717300
Cl221	Cl22	0.133900	0.441100	0.812200
O651	O65	0.141200	0.452700	0.811300
O661	O66	0.013100	0.760200	0.791400
N871	N87	0.886700	0.816700	0.888300
N881	N88	0.933700	0.852900	0.797700
C3101	C310	0.963600	0.871700	0.754200
H2161	H216	0.739700	0.954400	0.908700
C3111	C311	0.009200	0.840800	0.726600
C3121	C312	0.032400	0.787400	0.745600
C3131	C313	0.714100	0.078300	0.763300
H2171	H217	0.727100	0.095400	0.728700
C3141	C314	0.665000	0.098600	0.788900
H2181	H218	0.643200	0.127600	0.770400
C3151	C315	0.646600	0.076500	0.843000
H2191	H219	0.614300	0.092400	0.862300
C3161	C316	0.676600	0.031800	0.866300
H2201	H220	0.663200	0.015400	0.901100
Cu451	Cu45	0.355080	0.435500	0.267910
O671	O67	0.395800	0.471200	0.206500
N891	N89	0.326400	0.403600	0.340700
N901	N90	0.416400	0.380700	0.284000
C3171	C317	0.465300	0.377100	0.257100
H2211	H221	0.490400	0.346600	0.267300
C3181	C318	0.484100	0.416400	0.213000
C3191	C319	0.449500	0.461800	0.190100
C3201	C320	0.472100	0.497000	0.146800
H2221	H222	0.449300	0.526500	0.130500
C3211	C321	0.528900	0.488300	0.127500
H2231	H223	0.544400	0.513300	0.099300
C3221	C322	0.562200	0.444600	0.148700
H2241	H224	0.600200	0.439000	0.135000
C3231	C323	0.539300	0.408600	0.190900
H2251	H225	0.562000	0.377700	0.204900
Cu461	Cu46	0.341640	0.551510	0.217300
Cl231	Cl23	0.366100	0.558900	0.312200
O681	O68	0.358800	0.547300	0.311300
O691	O69	0.486900	0.239800	0.291400
N911	N91	0.613300	0.183300	0.388300
N921	N92	0.566300	0.147100	0.297700
C3241	C324	0.536400	0.128300	0.254200
H2261	H226	0.760300	0.045600	0.408700
C3251	C325	0.490800	0.159200	0.226600
C3261	C326	0.467600	0.212600	0.245600
C3271	C327	0.785900	0.921700	0.263300
H2271	H227	0.772900	0.904600	0.228700
C3281	C328	0.835000	0.901400	0.288900
H2281	H228	0.856800	0.872400	0.270400
C3291	C329	0.853400	0.923500	0.343000
H2291	H229	0.885700	0.907600	0.362300
C3301	C330	0.823400	0.968200	0.366300
H2301	H230	0.836800	0.984600	0.401100
Cu471	Cu47	0.644920	0.935500	0.232090
O701	O70	0.604200	0.971200	0.293500
N931	N93	0.673600	0.903600	0.159300
N941	N94	0.583600	0.880700	0.216000
C3311	C331	0.534700	0.877100	0.242900
H2311	H231	0.509600	0.846600	0.232700
C3321	C332	0.515900	0.916400	0.287000
C3331	C333	0.550500	0.961800	0.309900
C3341	C334	0.527900	0.997000	0.353200
H2321	H232	0.550700	0.026500	0.369500
C3351	C335	0.471100	0.988300	0.372500
H2331	H233	0.455600	0.013300	0.400700
C3361	C336	0.437800	0.944600	0.351300
H2341	H234	0.399800	0.939000	0.365000
C3371	C337	0.460700	0.908600	0.309100
H2351	H235	0.438000	0.877700	0.295100
Cu481	Cu48	0.658360	0.051510	0.282700
Cl241	Cl24	0.633900	0.058900	0.187800
O711	O71	0.641200	0.047300	0.188700
O721	O72	0.513100	0.739800	0.208600
N951	N95	0.386700	0.683300	0.111700
N961	N96	0.433700	0.647100	0.202300
C3381	C338	0.463600	0.628300	0.245800
H2361	H236	0.239700	0.545600	0.091300
C3391	C339	0.509200	0.659200	0.273400
C3401	C340	0.532400	0.712600	0.254400
C3411	C341	0.214100	0.421700	0.236700
H2371	H237	0.227100	0.404600	0.271300
C3421	C342	0.165000	0.401400	0.211100
H2381	H238	0.143200	0.372400	0.229600
C3431	C343	0.146600	0.423500	0.157000
H2391	H239	0.114300	0.407600	0.137700
C3441	C344	0.176600	0.468200	0.133700
H2401	H240	0.163200	0.484600	0.098900
C3451	C345	0.643500	0.856500	0.143500
C3461	C346	0.856500	0.143500	0.643500
C3471	C347	0.356500	0.356500	0.356500
C3481	C348	0.143500	0.643500	0.856500
C3491	C349	0.636600	0.136600	0.363400
C3501	C350	0.863400	0.863400	0.863400
C3511	C351	0.363400	0.636600	0.136600
C3521	C352	0.136600	0.363400	0.636600
