data_YAZZEG_clean_PM
_symmetry_space_group_name_H-M	'P1'
_cell_length_a	7.349400
_cell_length_b	11.475000
_cell_length_c	16.185200
_cell_angle_alpha	78.799000
_cell_angle_beta	82.483000
_cell_angle_gamma	79.955000
_symmetry_Int_Tables_number 1

loop_
_symmetry_equiv_pos_as_xyz
'x,y,z'

loop_
_atom_site_label
_atom_site_type_symbol
_atom_site_fract_x
_atom_site_fract_y
_atom_site_fract_z
Dy11	Dy1	0.058460	0.934020	0.226370
Dy21	Dy2	0.555710	0.735450	0.236030
Dy31	Dy3	0.941540	0.065980	0.773630
Dy41	Dy4	0.444290	0.264560	0.763970
H11	H1	0.005300	0.792900	0.033000
H21	H2	0.429000	0.269400	0.020100
H31	H3	0.153700	0.744400	0.440600
H41	H4	0.151200	0.123400	0.403200
H51	H5	0.125400	0.614700	0.893200
H61	H6	0.349800	0.458800	0.153300
H71	H7	0.781300	0.494600	0.410700
H81	H8	0.614900	0.820700	0.453000
H91	H9	0.797300	0.045900	0.970300
H101	H10	0.994700	0.207100	0.967000
H111	H11	0.571000	0.730600	0.979900
H121	H12	0.846300	0.255600	0.559400
H131	H13	0.848800	0.876600	0.596800
H141	H14	0.874600	0.385300	0.106800
H151	H15	0.650200	0.541200	0.846700
H161	H16	0.218700	0.505400	0.589300
H171	H17	0.385100	0.179300	0.547000
H181	H18	0.202700	0.954100	0.029700
C11	C1	0.206000	0.607400	0.087300
C21	C2	0.129700	0.651100	0.010000
C31	C3	0.165300	0.582600	0.946300
C41	C4	0.260400	0.466200	0.961700
C51	C5	0.323100	0.418500	0.040500
C61	C6	0.301100	0.489400	0.101900
C71	C7	0.192100	0.685800	0.152000
C81	C8	0.298600	0.395200	0.892100
C91	C9	0.098700	0.595900	0.485800
C101	C10	0.967100	0.593800	0.431000
C111	C11	0.869400	0.497000	0.446400
C121	C12	0.928500	0.691600	0.357000
C131	C13	0.350200	0.075900	0.464000
C141	C14	0.568500	0.892700	0.472000
C151	C15	0.417900	0.968100	0.436100
C161	C16	0.337400	0.930600	0.366300
C171	C17	0.676900	0.027900	0.981600
C181	C18	0.432900	0.952800	0.085400
C191	C19	0.613200	0.982900	0.064700
C201	C20	0.747900	0.965100	0.128500
C211	C21	0.794000	0.392600	0.912700
C221	C22	0.870300	0.348900	0.990000
C231	C23	0.834700	0.417400	0.053700
C241	C24	0.739600	0.533800	0.038300
C251	C25	0.676900	0.581500	0.959500
C261	C26	0.698900	0.510600	0.898100
C271	C27	0.807900	0.314200	0.848000
C281	C28	0.701400	0.604800	0.107900
C291	C29	0.901300	0.404100	0.514200
C301	C30	0.032900	0.406200	0.569000
C311	C31	0.130600	0.503000	0.553600
C321	C32	0.071500	0.308400	0.643000
C331	C33	0.649800	0.924100	0.536000
C341	C34	0.431500	0.107300	0.528000
C351	C35	0.582100	0.031900	0.563900
C361	C36	0.662600	0.069400	0.633700
C371	C37	0.323100	0.972100	0.018400
C381	C38	0.567100	0.047200	0.914600
C391	C39	0.386800	0.017100	0.935300
C401	C40	0.252100	0.034900	0.871500
O11	O1	0.074200	0.780300	0.145500
O21	O2	0.302100	0.656300	0.209380
O31	O3	0.267100	0.442500	0.817500
O41	O4	0.372300	0.285600	0.908600
O51	O5	0.018100	0.758200	0.992400
O61	O6	0.418800	0.303800	0.060800
O71	O7	0.021300	0.778700	0.343410
O81	O8	0.808900	0.682500	0.312600
O91	O9	0.202300	0.686800	0.473100
O101	O10	0.411000	0.833600	0.342100
O111	O11	0.197100	0.995800	0.336000
O121	O12	0.203100	0.155300	0.432700
O131	O13	0.728800	0.893500	0.198930
O141	O14	0.886800	0.018800	0.111760
O151	O15	0.366500	0.906100	0.165150
O161	O16	0.925800	0.219700	0.854500
O171	O17	0.697900	0.343700	0.790620
O181	O18	0.732900	0.557500	0.182500
O191	O19	0.627700	0.714400	0.091400
O201	O20	0.981900	0.241800	0.007600
O211	O21	0.581200	0.696200	0.939200
O221	O22	0.978700	0.221300	0.656590
O231	O23	0.191100	0.317500	0.687400
O241	O24	0.797700	0.313200	0.526900
O251	O25	0.589000	0.166400	0.657900
O261	O26	0.802900	0.004200	0.664000
O271	O27	0.796900	0.844700	0.567300
O281	O28	0.271200	0.106500	0.801070
O291	O29	0.113200	0.981200	0.888240
O301	O30	0.633500	0.093900	0.834850
