data_YEDKUO_clean_PM
_symmetry_space_group_name_H-M	'P1'
_cell_length_a	12.164700
_cell_length_b	12.164700
_cell_length_c	27.197100
_cell_angle_alpha	90.000000
_cell_angle_beta	90.000000
_cell_angle_gamma	120.000000
_symmetry_Int_Tables_number 1

loop_
_symmetry_equiv_pos_as_xyz
'x,y,z'

loop_
_atom_site_label
_atom_site_type_symbol
_atom_site_fract_x
_atom_site_fract_y
_atom_site_fract_z
O11	O1	0.881800	0.432300	0.198200
O21	O2	0.847100	0.587700	0.198900
C11	C1	0.874600	0.516300	0.178800
C21	C2	0.909400	0.537900	0.126500
C31	C3	0.823500	0.453400	0.088200
C41	C4	0.854400	0.494600	0.037400
C51	C5	0.979800	0.584000	0.025900
C61	C6	0.049800	0.671600	0.058800
C71	C7	0.998100	0.661000	0.107300
O31	O3	0.567700	0.449500	0.198200
O41	O4	0.412300	0.259400	0.198900
C81	C8	0.483700	0.358300	0.178800
C91	C9	0.462100	0.371500	0.126500
C101	C10	0.546600	0.370100	0.088200
C111	C11	0.505400	0.359800	0.037400
C121	C12	0.416000	0.395800	0.025900
C131	C13	0.328400	0.378200	0.058800
C141	C14	0.339000	0.337100	0.107300
O51	O5	0.550500	0.118200	0.198200
O61	O6	0.740600	0.152900	0.198900
C151	C15	0.641700	0.125400	0.178800
C161	C16	0.628500	0.090600	0.126500
C171	C17	0.629900	0.176500	0.088200
C181	C18	0.640200	0.145600	0.037400
C191	C19	0.604200	0.020200	0.025900
C201	C20	0.621800	0.950200	0.058800
C211	C21	0.662900	0.001900	0.107300
O71	O7	0.881800	0.432300	0.301800
O81	O8	0.847100	0.587700	0.301100
C221	C22	0.874600	0.516300	0.321200
C231	C23	0.909400	0.537900	0.373500
C241	C24	0.823500	0.453400	0.411800
C251	C25	0.854400	0.494600	0.462600
C261	C26	0.979800	0.584000	0.474100
C271	C27	0.049800	0.671600	0.441200
C281	C28	0.998100	0.661000	0.392700
O91	O9	0.567700	0.449500	0.301800
O101	O10	0.412300	0.259400	0.301100
C291	C29	0.483700	0.358300	0.321200
C301	C30	0.462100	0.371500	0.373500
C311	C31	0.546600	0.370100	0.411800
C321	C32	0.505400	0.359800	0.462600
C331	C33	0.416000	0.395800	0.474100
C341	C34	0.328400	0.378200	0.441200
C351	C35	0.339000	0.337100	0.392700
O111	O11	0.550500	0.118200	0.301800
O121	O12	0.740600	0.152900	0.301100
C361	C36	0.641700	0.125400	0.321200
C371	C37	0.628500	0.090600	0.373500
C381	C38	0.629900	0.176500	0.411800
C391	C39	0.640200	0.145600	0.462600
C401	C40	0.604200	0.020200	0.474100
C411	C41	0.621800	0.950200	0.441200
C421	C42	0.662900	0.001900	0.392700
O131	O13	0.432300	0.881800	0.801800
O141	O14	0.587700	0.847100	0.801100
C431	C43	0.516300	0.874600	0.821200
C441	C44	0.537900	0.909400	0.873500
C451	C45	0.453400	0.823500	0.911800
C461	C46	0.494600	0.854400	0.962600
C471	C47	0.584000	0.979800	0.974100
C481	C48	0.671600	0.049800	0.941200
C491	C49	0.661000	0.998100	0.892700
O151	O15	0.449500	0.567700	0.801800
O161	O16	0.259400	0.412300	0.801100
C501	C50	0.358300	0.483700	0.821200
C511	C51	0.371500	0.462100	0.873500
C521	C52	0.370100	0.546600	0.911800
C531	C53	0.359800	0.505400	0.962600
C541	C54	0.395800	0.416000	0.974100
C551	C55	0.378200	0.328400	0.941200
C561	C56	0.337100	0.339000	0.892700
O171	O17	0.118200	0.550500	0.801800
O181	O18	0.152900	0.740600	0.801100
C571	C57	0.125400	0.641700	0.821200
C581	C58	0.090600	0.628500	0.873500
C591	C59	0.176500	0.629900	0.911800
C601	C60	0.145600	0.640200	0.962600
C611	C61	0.020200	0.604200	0.974100
C621	C62	0.950200	0.621800	0.941200
C631	C63	0.001900	0.662900	0.892700
O191	O19	0.432300	0.881800	0.698200
O201	O20	0.587700	0.847100	0.698900
C641	C64	0.516300	0.874600	0.678800
C651	C65	0.537900	0.909400	0.626500
C661	C66	0.453400	0.823500	0.588200
C671	C67	0.494600	0.854400	0.537400
C681	C68	0.584000	0.979800	0.525900
C691	C69	0.671600	0.049800	0.558800
C701	C70	0.661000	0.998100	0.607300
O211	O21	0.449500	0.567700	0.698200
O221	O22	0.259400	0.412300	0.698900
C711	C71	0.358300	0.483700	0.678800
C721	C72	0.371500	0.462100	0.626500
C731	C73	0.370100	0.546600	0.588200
C741	C74	0.359800	0.505400	0.537400
C751	C75	0.395800	0.416000	0.525900
C761	C76	0.378200	0.328400	0.558800
C771	C77	0.337100	0.339000	0.607300
O231	O23	0.118200	0.550500	0.698200
O241	O24	0.152900	0.740600	0.698900
C781	C78	0.125400	0.641700	0.678800
C791	C79	0.090600	0.628500	0.626500
C801	C80	0.176500	0.629900	0.588200
C811	C81	0.145600	0.640200	0.537400
C821	C82	0.020200	0.604200	0.525900
C831	C83	0.950200	0.621800	0.558800
C841	C84	0.001900	0.662900	0.607300
Cr11	Cr1	0.813100	0.300400	0.250000
Cr21	Cr2	0.699600	0.512700	0.250000
Cr31	Cr3	0.487300	0.186900	0.250000
Cr41	Cr4	0.300400	0.813100	0.750000
Cr51	Cr5	0.512700	0.699600	0.750000
Cr61	Cr6	0.186900	0.487300	0.750000
O251	O25	0.666670	0.333330	0.250000
O261	O26	0.333330	0.666670	0.750000
