data_YEGDAR_clean_PM
_symmetry_space_group_name_H-M	'P1'
_cell_length_a	9.777000
_cell_length_b	9.777000
_cell_length_c	33.611000
_cell_angle_alpha	90.000000
_cell_angle_beta	90.000000
_cell_angle_gamma	90.341000
_symmetry_Int_Tables_number 1

loop_
_symmetry_equiv_pos_as_xyz
'x,y,z'

loop_
_atom_site_label
_atom_site_type_symbol
_atom_site_fract_x
_atom_site_fract_y
_atom_site_fract_z
Mn11	Mn1	0.952650	0.027410	0.392580
Mn21	Mn2	0.027410	0.952650	0.607420
Mn31	Mn3	0.027410	0.952650	0.892580
Mn41	Mn4	0.952650	0.027410	0.107420
Mn51	Mn5	0.972690	0.972690	0.500000
Mn61	Mn6	0.972690	0.972690	0.000000
H11	H1	0.273400	0.959800	0.382900
H21	H2	0.680100	0.925300	0.389700
H31	H3	0.460400	0.976000	0.488900
H41	H4	0.231800	0.301200	0.309200
H51	H5	0.487500	0.329700	0.289000
H61	H6	0.528300	0.483500	0.282600
H71	H7	0.400600	0.445600	0.308700
H81	H8	0.799400	0.280000	0.340100
H91	H9	0.676300	0.473700	0.367200
H101	H10	0.793600	0.236800	0.455500
H111	H11	0.656000	0.439800	0.477800
H121	H12	0.678100	0.566500	0.449700
H131	H13	0.453300	0.278300	0.449200
H141	H14	0.231500	0.275900	0.429500
H151	H15	0.249200	0.676400	0.416400
H161	H16	0.477600	0.673600	0.431900
H171	H17	0.010700	0.466500	0.434800
H181	H18	0.046000	0.393000	0.394700
H191	H19	0.966800	0.726200	0.432000
H201	H20	0.986500	0.787700	0.317400
H211	H21	0.048600	0.551000	0.329200
H221	H22	0.281700	0.919700	0.321600
H231	H23	0.363300	0.836500	0.289700
H241	H24	0.333400	0.772000	0.331500
H251	H25	0.585300	0.101700	0.325900
H261	H26	0.508400	0.054200	0.287300
H271	H27	0.425800	0.114200	0.323200
H281	H28	0.603400	0.743200	0.332900
H291	H29	0.599300	0.816300	0.291400
H301	H30	0.689900	0.876500	0.325800
H311	H31	0.959800	0.273400	0.617100
H321	H32	0.925300	0.680100	0.610300
H331	H33	0.976000	0.460400	0.511100
H341	H34	0.301200	0.231800	0.690800
H351	H35	0.329700	0.487500	0.711000
H361	H36	0.483500	0.528300	0.717400
H371	H37	0.445600	0.400600	0.691300
H381	H38	0.280000	0.799400	0.659900
H391	H39	0.473700	0.676300	0.632800
H401	H40	0.236800	0.793600	0.544500
H411	H41	0.439800	0.656000	0.522200
H421	H42	0.566500	0.678100	0.550300
H431	H43	0.278300	0.453300	0.550800
H441	H44	0.275900	0.231500	0.570500
H451	H45	0.676400	0.249200	0.583600
H461	H46	0.673600	0.477600	0.568100
H471	H47	0.466500	0.010700	0.565200
H481	H48	0.393000	0.046000	0.605300
H491	H49	0.726200	0.966800	0.568000
H501	H50	0.787700	0.986500	0.682600
H511	H51	0.551000	0.048600	0.670800
H521	H52	0.919700	0.281700	0.678400
H531	H53	0.836500	0.363300	0.710300
H541	H54	0.772000	0.333400	0.668500
H551	H55	0.101700	0.585300	0.674100
H561	H56	0.054200	0.508400	0.712700
H571	H57	0.114200	0.425800	0.676800
H581	H58	0.743200	0.603400	0.667100
H591	H59	0.816300	0.599300	0.708600
H601	H60	0.876500	0.689900	0.674200
H611	H61	0.959800	0.273400	0.882900
H621	H62	0.925300	0.680100	0.889700
H631	H63	0.976000	0.460400	0.988900
H641	H64	0.301200	0.231800	0.809200
H651	H65	0.329700	0.487500	0.789000
H661	H66	0.483500	0.528300	0.782600
H671	H67	0.445600	0.400600	0.808700
H681	H68	0.280000	0.799400	0.840100
H691	H69	0.473700	0.676300	0.867200
H701	H70	0.236800	0.793600	0.955500
H711	H71	0.439800	0.656000	0.977800
H721	H72	0.566500	0.678100	0.949700
H731	H73	0.278300	0.453300	0.949200
H741	H74	0.275900	0.231500	0.929500
H751	H75	0.676400	0.249200	0.916400
H761	H76	0.673600	0.477600	0.931900
H771	H77	0.466500	0.010700	0.934800
H781	H78	0.393000	0.046000	0.894700
H791	H79	0.726200	0.966800	0.932000
H801	H80	0.787700	0.986500	0.817400
H811	H81	0.551000	0.048600	0.829200
H821	H82	0.919700	0.281700	0.821600
H831	H83	0.836500	0.363300	0.789700
H841	H84	0.772000	0.333400	0.831500
H851	H85	0.101700	0.585300	0.825900
H861	H86	0.054200	0.508400	0.787300
H871	H87	0.114200	0.425800	0.823200
H881	H88	0.743200	0.603400	0.832900
H891	H89	0.816300	0.599300	0.791400
H901	H90	0.876500	0.689900	0.825800
H911	H91	0.273400	0.959800	0.117100
H921	H92	0.680100	0.925300	0.110300
H931	H93	0.460400	0.976000	0.011100
H941	H94	0.231800	0.301200	0.190800
H951	H95	0.487500	0.329700	0.211000
H961	H96	0.528300	0.483500	0.217400
H971	H97	0.400600	0.445600	0.191300
H981	H98	0.799400	0.280000	0.159900
H991	H99	0.676300	0.473700	0.132800
H1001	H100	0.793600	0.236800	0.044500
H1011	H101	0.656000	0.439800	0.022200
H1021	H102	0.678100	0.566500	0.050300
H1031	H103	0.453300	0.278300	0.050800
H1041	H104	0.231500	0.275900	0.070500
H1051	H105	0.249200	0.676400	0.083600
H1061	H106	0.477600	0.673600	0.068100
H1071	H107	0.010700	0.466500	0.065200
H1081	H108	0.046000	0.393000	0.105300
H1091	H109	0.966800	0.726200	0.068000
H1101	H110	0.986500	0.787700	0.182600
H1111	H111	0.048600	0.551000	0.170800
H1121	H112	0.281700	0.919700	0.178400
H1131	H113	0.363300	0.836500	0.210300
H1141	H114	0.333400	0.772000	0.168500
H1151	H115	0.585300	0.101700	0.174100
H1161	H116	0.508400	0.054200	0.212700
H1171	H117	0.425800	0.114200	0.176800
H1181	H118	0.603400	0.743200	0.167100
H1191	H119	0.599300	0.816300	0.208600
H1201	H120	0.689900	0.876500	0.174200
H1211	H121	0.961700	0.068100	0.250000
H1221	H122	0.068100	0.961700	0.750000
C11	C1	0.209900	0.980900	0.458310
C21	C2	0.345900	0.969700	0.438660
C31	C3	0.353400	0.955400	0.397760
C41	C4	0.477800	0.934600	0.378140
C51	C5	0.595400	0.936400	0.401860
C61	C6	0.590500	0.954100	0.442650
C71	C7	0.465000	0.968000	0.461370
C81	C8	0.720600	0.958400	0.466290
C91	C9	0.487600	0.915000	0.333360
C101	C10	0.035100	0.121900	0.324400
C111	C11	0.089300	0.175500	0.285840
C121	C12	0.196400	0.270000	0.285220
C131	C13	0.453100	0.420700	0.285700
C141	C14	0.782700	0.295500	0.366970
C151	C15	0.715100	0.402700	0.381660
C161	C16	0.780100	0.271500	0.430030
C171	C17	0.641800	0.474000	0.451010
C181	C18	0.490600	0.475400	0.441740
C191	C19	0.413100	0.360100	0.441500
C201	C20	0.279400	0.358200	0.430700
C211	C21	0.215700	0.477500	0.421450
C221	C22	0.290800	0.593600	0.422400
C231	C23	0.428000	0.592200	0.432100
C241	C24	0.064300	0.473900	0.410560
C251	C25	0.980500	0.712900	0.404870
C261	C26	0.990900	0.745900	0.342160
C271	C27	0.025600	0.614800	0.348510
C281	C28	0.354200	0.855200	0.317600
C291	C29	0.503300	0.059900	0.315800
C301	C30	0.605700	0.830100	0.319600
C311	C31	0.980900	0.209900	0.541690
C321	C32	0.969700	0.345900	0.561340
C331	C33	0.955400	0.353400	0.602240
C341	C34	0.934600	0.477800	0.621860
C351	C35	0.936400	0.595400	0.598140
C361	C36	0.954100	0.590500	0.557350
C371	C37	0.968000	0.465000	0.538630
C381	C38	0.958400	0.720600	0.533710
C391	C39	0.915000	0.487600	0.666640
C401	C40	0.121900	0.035100	0.675600
C411	C41	0.175500	0.089300	0.714160
C421	C42	0.270000	0.196400	0.714780
C431	C43	0.420700	0.453100	0.714300
C441	C44	0.295500	0.782700	0.633030
C451	C45	0.402700	0.715100	0.618340
C461	C46	0.271500	0.780100	0.569970
C471	C47	0.474000	0.641800	0.548990
C481	C48	0.475400	0.490600	0.558260
C491	C49	0.360100	0.413100	0.558500
C501	C50	0.358200	0.279400	0.569300
C511	C51	0.477500	0.215700	0.578550
C521	C52	0.593600	0.290800	0.577600
C531	C53	0.592200	0.428000	0.567900
C541	C54	0.473900	0.064300	0.589440
C551	C55	0.712900	0.980500	0.595130
C561	C56	0.745900	0.990900	0.657840
C571	C57	0.614800	0.025600	0.651490
C581	C58	0.855200	0.354200	0.682400
C591	C59	0.059900	0.503300	0.684200
C601	C60	0.830100	0.605700	0.680400
C611	C61	0.980900	0.209900	0.958310
C621	C62	0.969700	0.345900	0.938660
C631	C63	0.955400	0.353400	0.897760
C641	C64	0.934600	0.477800	0.878140
C651	C65	0.936400	0.595400	0.901860
C661	C66	0.954100	0.590500	0.942650
C671	C67	0.968000	0.465000	0.961370
C681	C68	0.958400	0.720600	0.966290
C691	C69	0.915000	0.487600	0.833360
C701	C70	0.121900	0.035100	0.824400
C711	C71	0.175500	0.089300	0.785840
C721	C72	0.270000	0.196400	0.785220
C731	C73	0.420700	0.453100	0.785700
C741	C74	0.295500	0.782700	0.866970
C751	C75	0.402700	0.715100	0.881660
C761	C76	0.271500	0.780100	0.930030
C771	C77	0.474000	0.641800	0.951010
C781	C78	0.475400	0.490600	0.941740
C791	C79	0.360100	0.413100	0.941500
C801	C80	0.358200	0.279400	0.930700
C811	C81	0.477500	0.215700	0.921450
C821	C82	0.593600	0.290800	0.922400
C831	C83	0.592200	0.428000	0.932100
C841	C84	0.473900	0.064300	0.910560
C851	C85	0.712900	0.980500	0.904870
C861	C86	0.745900	0.990900	0.842160
C871	C87	0.614800	0.025600	0.848510
C881	C88	0.855200	0.354200	0.817600
C891	C89	0.059900	0.503300	0.815800
C901	C90	0.830100	0.605700	0.819600
C911	C91	0.209900	0.980900	0.041690
C921	C92	0.345900	0.969700	0.061340
C931	C93	0.353400	0.955400	0.102240
C941	C94	0.477800	0.934600	0.121860
C951	C95	0.595400	0.936400	0.098140
C961	C96	0.590500	0.954100	0.057350
C971	C97	0.465000	0.968000	0.038630
C981	C98	0.720600	0.958400	0.033710
C991	C99	0.487600	0.915000	0.166640
C1001	C100	0.035100	0.121900	0.175600
C1011	C101	0.089300	0.175500	0.214160
C1021	C102	0.196400	0.270000	0.214780
C1031	C103	0.453100	0.420700	0.214300
C1041	C104	0.782700	0.295500	0.133030
C1051	C105	0.715100	0.402700	0.118340
C1061	C106	0.780100	0.271500	0.069970
C1071	C107	0.641800	0.474000	0.048990
C1081	C108	0.490600	0.475400	0.058260
C1091	C109	0.413100	0.360100	0.058500
C1101	C110	0.279400	0.358200	0.069300
C1111	C111	0.215700	0.477500	0.078550
C1121	C112	0.290800	0.593600	0.077600
C1131	C113	0.428000	0.592200	0.067900
C1141	C114	0.064300	0.473900	0.089440
C1151	C115	0.980500	0.712900	0.095130
C1161	C116	0.990900	0.745900	0.157840
C1171	C117	0.025600	0.614800	0.151490
C1181	C118	0.354200	0.855200	0.182400
C1191	C119	0.503300	0.059900	0.184200
C1201	C120	0.605700	0.830100	0.180400
C1211	C121	0.034700	0.129500	0.250000
C1221	C122	0.251800	0.319200	0.250000
C1231	C123	0.365200	0.426200	0.250000
C1241	C124	0.299600	0.564600	0.250000
C1251	C125	0.129500	0.034700	0.750000
C1261	C126	0.319200	0.251800	0.750000
C1271	C127	0.426200	0.365200	0.750000
C1281	C128	0.564600	0.299600	0.750000
N11	N1	0.824000	0.211800	0.397500
N21	N2	0.714400	0.387000	0.422450
N31	N3	0.962700	0.808900	0.377770
N41	N4	0.021000	0.593000	0.388760
N51	N5	0.211800	0.824000	0.602500
N61	N6	0.387000	0.714400	0.577550
N71	N7	0.808900	0.962700	0.622230
N81	N8	0.593000	0.021000	0.611240
N91	N9	0.211800	0.824000	0.897500
N101	N10	0.387000	0.714400	0.922450
N111	N11	0.808900	0.962700	0.877770
N121	N12	0.593000	0.021000	0.888760
N131	N13	0.824000	0.211800	0.102500
N141	N14	0.714400	0.387000	0.077550
N151	N15	0.962700	0.808900	0.122230
N161	N16	0.021000	0.593000	0.111240
O11	O1	0.106570	0.009030	0.437690
O21	O2	0.198500	0.962100	0.494990
O31	O3	0.717100	0.964900	0.502900
O41	O4	0.834810	0.958990	0.447980
O51	O5	0.099000	0.149000	0.356130
O61	O6	0.928980	0.049620	0.324640
O71	O7	0.009030	0.106570	0.562310
O81	O8	0.962100	0.198500	0.505010
O91	O9	0.964900	0.717100	0.497100
O101	O10	0.958990	0.834810	0.552020
O111	O11	0.149000	0.099000	0.643870
O121	O12	0.049620	0.928980	0.675360
O131	O13	0.009030	0.106570	0.937690
O141	O14	0.962100	0.198500	0.994990
O151	O15	0.964900	0.717100	0.002900
O161	O16	0.958990	0.834810	0.947980
O171	O17	0.149000	0.099000	0.856130
O181	O18	0.049620	0.928980	0.824640
O191	O19	0.106570	0.009030	0.062310
O201	O20	0.198500	0.962100	0.005010
O211	O21	0.717100	0.964900	0.997100
O221	O22	0.834810	0.958990	0.052020
O231	O23	0.099000	0.149000	0.143870
O241	O24	0.928980	0.049620	0.175360
