data_YEGKOM_clean_PM
_symmetry_space_group_name_H-M	'P1'
_cell_length_a	10.204000
_cell_length_b	10.204000
_cell_length_c	13.099800
_cell_angle_alpha	90.000000
_cell_angle_beta	90.000000
_cell_angle_gamma	90.000000
_symmetry_Int_Tables_number 1

loop_
_symmetry_equiv_pos_as_xyz
'x,y,z'

loop_
_atom_site_label
_atom_site_type_symbol
_atom_site_fract_x
_atom_site_fract_y
_atom_site_fract_z
Zn11	Zn1	0.730310	0.730310	0.500000
Zn21	Zn2	0.269690	0.269690	0.000000
Zn31	Zn3	0.769690	0.230310	0.750000
Zn41	Zn4	0.230310	0.769690	0.250000
H11	H1	0.621500	0.453200	0.447600
H21	H2	0.869100	0.511500	0.766500
H31	H3	0.857900	0.636200	0.708100
H41	H4	0.378500	0.546800	0.947600
H51	H5	0.130900	0.488500	0.266500
H61	H6	0.142100	0.363800	0.208100
H71	H7	0.046800	0.121500	0.697600
H81	H8	0.988500	0.369100	0.016500
H91	H9	0.863800	0.357900	0.958100
H101	H10	0.953200	0.878500	0.197600
H111	H11	0.011500	0.630900	0.516500
H121	H12	0.136200	0.642100	0.458100
H131	H13	0.878500	0.953200	0.802400
H141	H14	0.630900	0.011500	0.483500
H151	H15	0.642100	0.136200	0.541900
H161	H16	0.121500	0.046800	0.302400
H171	H17	0.369100	0.988500	0.983500
H181	H18	0.357900	0.863800	0.041900
H191	H19	0.453200	0.621500	0.552400
H201	H20	0.511500	0.869100	0.233500
H211	H21	0.636200	0.857900	0.291900
H221	H22	0.546800	0.378500	0.052400
H231	H23	0.488500	0.130900	0.733500
H241	H24	0.363800	0.142100	0.791900
C11	C1	0.771300	0.491000	0.640200
C21	C2	0.664900	0.446000	0.509800
C31	C3	0.228700	0.509000	0.140200
C41	C4	0.335100	0.554000	0.009800
C51	C5	0.009000	0.271300	0.890200
C61	C6	0.054000	0.164900	0.759800
C71	C7	0.991000	0.728700	0.390200
C81	C8	0.946000	0.835100	0.259800
C91	C9	0.728700	0.991000	0.609800
C101	C10	0.835100	0.946000	0.740200
C111	C11	0.271300	0.009000	0.109800
C121	C12	0.164900	0.054000	0.240200
C131	C13	0.491000	0.771300	0.359800
C141	C14	0.446000	0.664900	0.490200
C151	C15	0.509000	0.228700	0.859800
C161	C16	0.554000	0.335100	0.990200
N11	N1	0.725900	0.548000	0.557700
N21	N2	0.747400	0.366700	0.650400
N31	N3	0.674300	0.337000	0.560900
N41	N4	0.841400	0.554000	0.714100
N51	N5	0.274100	0.452000	0.057700
N61	N6	0.252600	0.633300	0.150400
N71	N7	0.325700	0.663000	0.060900
N81	N8	0.158600	0.446000	0.214100
N91	N9	0.952000	0.225900	0.807700
N101	N10	0.133300	0.247400	0.900400
N111	N11	0.163000	0.174300	0.810900
N121	N12	0.946000	0.341400	0.964100
N131	N13	0.048000	0.774100	0.307700
N141	N14	0.866700	0.752600	0.400400
N151	N15	0.837000	0.825700	0.310900
N161	N16	0.054000	0.658600	0.464100
N171	N17	0.774100	0.048000	0.692300
N181	N18	0.752600	0.866700	0.599600
N191	N19	0.825700	0.837000	0.689100
N201	N20	0.658600	0.054000	0.535900
N211	N21	0.225900	0.952000	0.192300
N221	N22	0.247400	0.133300	0.099600
N231	N23	0.174300	0.163000	0.189100
N241	N24	0.341400	0.946000	0.035900
N251	N25	0.548000	0.725900	0.442300
N261	N26	0.366700	0.747400	0.349600
N271	N27	0.337000	0.674300	0.439100
N281	N28	0.554000	0.841400	0.285900
N291	N29	0.452000	0.274100	0.942300
N301	N30	0.633300	0.252600	0.849600
N311	N31	0.663000	0.325700	0.939100
N321	N32	0.446000	0.158600	0.785900
