data_YEGRAD_clean_h_PM
_symmetry_space_group_name_H-M	'P1'
_cell_length_a	14.001000
_cell_length_b	19.984600
_cell_length_c	19.984600
_cell_angle_alpha	81.120900
_cell_angle_beta	69.494700
_cell_angle_gamma	69.494700
_symmetry_Int_Tables_number 1

loop_
_symmetry_equiv_pos_as_xyz
'x,y,z'

loop_
_atom_site_label
_atom_site_type_symbol
_atom_site_fract_x
_atom_site_fract_y
_atom_site_fract_z
Cd11	Cd1	0.991940	0.756150	0.019750
Cd21	Cd2	0.267840	0.743850	0.480250
Cd31	Cd3	0.767840	0.480250	0.743850
Cd41	Cd4	0.491940	0.019750	0.756150
Ag11	Ag1	0.381040	0.688920	0.807420
Ag21	Ag2	0.639810	0.726630	0.249210
Ag31	Ag3	0.377380	0.811080	0.692580
Ag41	Ag4	0.115650	0.773370	0.250790
Ag51	Ag5	0.877380	0.692580	0.811080
Ag61	Ag6	0.615650	0.250790	0.773370
Ag71	Ag7	0.881040	0.807420	0.688920
Ag81	Ag8	0.139810	0.249210	0.726630
C11	C1	0.530700	0.619500	0.753900
C21	C2	0.764300	0.732100	0.155900
C31	C3	0.511600	0.731200	0.344400
C41	C4	0.229700	0.737700	0.878300
C51	C5	0.098600	0.602700	0.952500
C61	C6	0.137500	0.527500	0.945700
C71	C7	0.134500	0.484200	0.006600
C81	C8	0.087100	0.516900	0.073500
C91	C9	0.050400	0.589900	0.075300
C101	C10	0.177400	0.402800	0.999600
C111	C11	0.869100	0.912200	0.081000
C121	C12	0.824500	0.984800	0.086800
C131	C13	0.840700	0.028200	0.023000
C141	C14	0.906600	0.990800	0.959200
C151	C15	0.948800	0.918200	0.958400
C161	C16	0.791200	0.110000	0.020400
C171	C17	0.404100	0.880500	0.746100
C181	C18	0.152300	0.767900	0.344100
C191	C19	0.087200	0.768800	0.155600
C201	C20	0.345700	0.762300	0.621700
C211	C21	0.153800	0.897300	0.547500
C221	C22	0.110700	0.972500	0.554300
C231	C23	0.125300	0.015800	0.493400
C241	C24	0.177500	0.983100	0.426500
C251	C25	0.215600	0.910100	0.424700
C261	C26	0.079800	0.097200	0.500400
C271	C27	0.362300	0.587800	0.419000
C281	C28	0.396100	0.515200	0.413200
C291	C29	0.391900	0.471800	0.477000
C301	C30	0.356600	0.509200	0.540800
C311	C31	0.325400	0.581800	0.541600
C321	C32	0.421600	0.390000	0.479600
C331	C33	0.904100	0.746100	0.880500
C341	C34	0.652300	0.344100	0.767900
C351	C35	0.587200	0.155600	0.768800
C361	C36	0.845700	0.621700	0.762300
C371	C37	0.653800	0.547500	0.897300
C381	C38	0.610700	0.554300	0.972500
C391	C39	0.625300	0.493400	0.015800
C401	C40	0.677500	0.426500	0.983100
C411	C41	0.715600	0.424700	0.910100
C421	C42	0.579800	0.500400	0.097200
C431	C43	0.862300	0.419000	0.587800
C441	C44	0.896100	0.413200	0.515200
C451	C45	0.891900	0.477000	0.471800
C461	C46	0.856600	0.540800	0.509200
C471	C47	0.825400	0.541600	0.581800
C481	C48	0.921600	0.479600	0.390000
C491	C49	0.030700	0.753900	0.619500
C501	C50	0.264300	0.155900	0.732100
C511	C51	0.011600	0.344400	0.731200
C521	C52	0.729700	0.878300	0.737700
C531	C53	0.598600	0.952500	0.602700
C541	C54	0.637500	0.945700	0.527500
C551	C55	0.634500	0.006600	0.484200
C561	C56	0.587100	0.073500	0.516900
C571	C57	0.550400	0.075300	0.589900
C581	C58	0.677400	0.999600	0.402800
C591	C59	0.369100	0.081000	0.912200
C601	C60	0.324500	0.086800	0.984800
C611	C61	0.340700	0.023000	0.028200
C621	C62	0.406600	0.959200	0.990800
C631	C63	0.448800	0.958400	0.918200
C641	C64	0.291200	0.020400	0.110000
N11	N1	0.608200	0.575800	0.736200
N21	N2	0.831700	0.739800	0.106400
N31	N3	0.435100	0.739200	0.393400
N41	N4	0.152700	0.755400	0.922200
N51	N5	0.056700	0.632400	0.014200
N61	N6	0.929100	0.878500	0.019900
N71	N7	0.420200	0.924200	0.763800
N81	N8	0.177900	0.760200	0.393600
N91	N9	0.067700	0.760800	0.106600
N101	N10	0.330300	0.744600	0.577800
N111	N11	0.203300	0.867600	0.485800
N121	N12	0.327500	0.621500	0.480100
N131	N13	0.920200	0.763800	0.924200
N141	N14	0.677900	0.393600	0.760200
N151	N15	0.567700	0.106600	0.760800
N161	N16	0.830300	0.577800	0.744600
N171	N17	0.703300	0.485800	0.867600
N181	N18	0.827500	0.480100	0.621500
N191	N19	0.108200	0.736200	0.575800
N201	N20	0.331700	0.106400	0.739800
N211	N21	0.935100	0.393400	0.739200
N221	N22	0.652700	0.922200	0.755400
N231	N23	0.556700	0.014200	0.632400
N241	N24	0.429100	0.019900	0.878500
Cd51	Cd5	0.232160	0.519750	0.256150
Cd61	Cd6	0.508060	0.980250	0.243850
Cd71	Cd7	0.008060	0.243850	0.980250
Cd81	Cd8	0.732160	0.256150	0.519750
Ag91	Ag9	0.122620	0.307420	0.188920
Ag101	Ag10	0.384350	0.749210	0.226630
Ag111	Ag11	0.118960	0.192580	0.311080
Ag121	Ag12	0.860190	0.750790	0.273370
Ag131	Ag13	0.618960	0.311080	0.192580
Ag141	Ag14	0.360190	0.273370	0.750790
Ag151	Ag15	0.622620	0.188920	0.307420
Ag161	Ag16	0.884350	0.226630	0.749210
C651	C65	0.095900	0.253900	0.119500
C661	C66	0.347700	0.655900	0.232100
C671	C67	0.412800	0.844400	0.231200
C681	C68	0.154300	0.378300	0.237700
C691	C69	0.346200	0.452500	0.102700
C701	C70	0.389300	0.445700	0.027500
C711	C71	0.374700	0.506600	0.984200
C721	C72	0.322500	0.573500	0.016900
C731	C73	0.284400	0.575300	0.089900
C741	C74	0.420200	0.499600	0.902800
C751	C75	0.137700	0.581000	0.412200
C761	C76	0.103900	0.586800	0.484800
C771	C77	0.108100	0.523000	0.528200
C781	C78	0.143400	0.459200	0.490800
C791	C79	0.174600	0.458400	0.418200
C801	C80	0.078400	0.520400	0.610000
C811	C81	0.969300	0.246100	0.380500
C821	C82	0.735700	0.844100	0.267900
C831	C83	0.988400	0.655600	0.268800
C841	C84	0.270300	0.121700	0.262300
C851	C85	0.401400	0.047500	0.397300
C861	C86	0.362500	0.054300	0.472500
C871	C87	0.365500	0.993400	0.515800
C881	C88	0.412900	0.926500	0.483100
C891	C89	0.449600	0.924700	0.410100
C901	C90	0.322600	0.000400	0.597200
C911	C91	0.630900	0.919000	0.087800
C921	C92	0.675500	0.913200	0.015200
C931	C93	0.659300	0.977000	0.971800
C941	C94	0.593400	0.040800	0.009200
C951	C95	0.551200	0.041600	0.081800
C961	C96	0.708800	0.979600	0.890000
C971	C97	0.469300	0.380500	0.246100
C981	C98	0.235700	0.267900	0.844100
C991	C99	0.488400	0.268800	0.655600
C1001	C100	0.770300	0.262300	0.121700
C1011	C101	0.901400	0.397300	0.047500
C1021	C102	0.862500	0.472500	0.054300
C1031	C103	0.865500	0.515800	0.993400
C1041	C104	0.912900	0.483100	0.926500
C1051	C105	0.949600	0.410100	0.924700
C1061	C106	0.822600	0.597200	0.000400
C1071	C107	0.130900	0.087800	0.919000
C1081	C108	0.175500	0.015200	0.913200
C1091	C109	0.159300	0.971800	0.977000
C1101	C110	0.093400	0.009200	0.040800
C1111	C111	0.051200	0.081800	0.041600
C1121	C112	0.208800	0.890000	0.979600
C1131	C113	0.595900	0.119500	0.253900
C1141	C114	0.847700	0.232100	0.655900
C1151	C115	0.912800	0.231200	0.844400
C1161	C116	0.654300	0.237700	0.378300
C1171	C117	0.846200	0.102700	0.452500
C1181	C118	0.889300	0.027500	0.445700
C1191	C119	0.874700	0.984200	0.506600
C1201	C120	0.822500	0.016900	0.573500
C1211	C121	0.784400	0.089900	0.575300
C1221	C122	0.920200	0.902800	0.499600
C1231	C123	0.637700	0.412200	0.581000
C1241	C124	0.603900	0.484800	0.586800
C1251	C125	0.608100	0.528200	0.523000
C1261	C126	0.643400	0.490800	0.459200
C1271	C127	0.674600	0.418200	0.458400
C1281	C128	0.578400	0.610000	0.520400
N251	N25	0.079800	0.236200	0.075800
N261	N26	0.322100	0.606400	0.239800
N271	N27	0.432300	0.893400	0.239200
N281	N28	0.169700	0.422200	0.255400
N291	N29	0.296700	0.514200	0.132400
N301	N30	0.172500	0.519900	0.378500
N311	N31	0.891800	0.263800	0.424200
N321	N32	0.668300	0.893600	0.260200
N331	N33	0.064900	0.606600	0.260800
N341	N34	0.347300	0.077800	0.244600
N351	N35	0.443300	0.985800	0.367600
N361	N36	0.570900	0.980100	0.121500
N371	N37	0.391800	0.424200	0.263800
N381	N38	0.168300	0.260200	0.893600
N391	N39	0.564900	0.260800	0.606600
N401	N40	0.847300	0.244600	0.077800
N411	N41	0.943300	0.367600	0.985800
N421	N42	0.070900	0.121500	0.980100
N431	N43	0.579800	0.075800	0.236200
N441	N44	0.822100	0.239800	0.606400
N451	N45	0.932300	0.239200	0.893400
N461	N46	0.669700	0.255400	0.422200
N471	N47	0.796700	0.132400	0.514200
N481	N48	0.672500	0.378500	0.519900
H11	H1	0.103410	0.639590	0.902700
H21	H2	0.170440	0.503970	0.890570
H31	H3	0.079870	0.482500	0.125000
H41	H4	0.013220	0.617100	0.128770
H51	H5	0.167130	0.388850	0.949870
H61	H6	0.130590	0.376740	0.048890
H71	H7	0.266360	0.382320	0.994830
H81	H8	0.856140	0.875590	0.130770
H91	H9	0.776150	0.008690	0.141560
H101	H10	0.925990	0.021690	0.905940
H111	H11	0.000910	0.890680	0.905800
H121	H12	0.715620	0.127280	0.068600
H131	H13	0.769340	0.128010	0.969180
H141	H14	0.851920	0.135400	0.021490
H151	H15	0.145700	0.860410	0.597300
H161	H16	0.064980	0.996030	0.609430
H171	H17	0.187370	0.017500	0.375000
H181	H18	0.259090	0.882900	0.371230
H191	H19	0.010490	0.110890	0.552660
H201	H20	0.049340	0.122910	0.453570
H211	H21	0.145760	0.118280	0.500170
H221	H22	0.362500	0.624410	0.369230
H231	H23	0.426400	0.491310	0.358440
H241	H24	0.353620	0.478310	0.594060
H251	H25	0.297400	0.609320	0.594200
H261	H26	0.403800	0.373110	0.434480
H271	H27	0.372120	0.371540	0.533170
H281	H28	0.510910	0.364660	0.473080
H291	H29	0.645700	0.597300	0.860410
H301	H30	0.564980	0.609430	0.996030
H311	H31	0.687370	0.375000	0.017500
H321	H32	0.759090	0.371230	0.882900
H331	H33	0.556840	0.450910	0.123290
H341	H34	0.505460	0.549880	0.111180
H351	H35	0.643280	0.505620	0.117620
H361	H36	0.862500	0.369230	0.624410
H371	H37	0.926400	0.358440	0.491310
H381	H38	0.853620	0.594060	0.478310
H391	H39	0.797400	0.594200	0.609320
H401	H40	0.867570	0.531310	0.371910
H411	H41	0.909990	0.431960	0.372790
H421	H42	0.009270	0.477460	0.364610
H431	H43	0.603410	0.902700	0.639590
H441	H44	0.670440	0.890570	0.503970
H451	H45	0.579870	0.125000	0.482500
H461	H46	0.513220	0.128770	0.617100
H471	H47	0.623410	0.995070	0.373420
H481	H48	0.763260	0.998930	0.371690
H491	H49	0.356140	0.130770	0.875590
H501	H50	0.276150	0.141560	0.008690
H511	H51	0.425990	0.905940	0.021690
H521	H52	0.500910	0.905800	0.890680
H531	H53	0.279390	0.966140	0.128620
H541	H54	0.210080	0.064380	0.126770
H551	H55	0.347400	0.028750	0.135310
H561	H56	0.354300	0.402700	0.139590
H571	H57	0.435020	0.390570	0.003970
H581	H58	0.312630	0.625000	0.982500
H591	H59	0.240910	0.628770	0.117100
H601	H60	0.368400	0.545610	0.876450
H611	H61	0.419780	0.446640	0.888560
H621	H62	0.506220	0.501350	0.882900
H631	H63	0.137500	0.630770	0.375590
H641	H64	0.073600	0.641560	0.508690
H651	H65	0.146380	0.405940	0.521690
H661	H66	0.202600	0.405800	0.390680
H671	H67	0.052100	0.471470	0.633260
H681	H68	0.009680	0.570830	0.632370
H691	H69	0.151380	0.516970	0.625070
H701	H70	0.396590	0.097300	0.360410
H711	H71	0.329560	0.109430	0.496030
H721	H72	0.420130	0.875000	0.517500
H731	H73	0.486780	0.871230	0.382900
H741	H74	0.236740	0.001070	0.628310
H751	H75	0.376590	0.004930	0.626580
H761	H76	0.643860	0.869230	0.124410
H771	H77	0.723850	0.858440	0.991310
H781	H78	0.574010	0.094060	0.978310
H791	H79	0.499090	0.094200	0.109320
H801	H80	0.652170	0.024870	0.866300
H811	H81	0.721480	0.926630	0.868160
H821	H82	0.789480	0.989240	0.874850
H831	H83	0.896590	0.360410	0.097300
H841	H84	0.829560	0.496030	0.109430
H851	H85	0.754540	0.611460	0.053160
H861	H86	0.791080	0.623580	0.954140
H871	H87	0.143860	0.124410	0.869230
H881	H88	0.223850	0.991310	0.858440
H891	H89	0.074010	0.978310	0.094060
H901	H90	0.999090	0.109320	0.094200
H911	H91	0.211420	0.867540	0.929670
H921	H92	0.157700	0.866820	0.029090
H931	H93	0.294000	0.874940	0.981980
H941	H94	0.854300	0.139590	0.402700
H951	H95	0.935020	0.003970	0.390570
H961	H96	0.812630	0.982500	0.625000
H971	H97	0.740910	0.117100	0.628770
H981	H98	0.912280	0.888180	0.449300
H991	H99	0.873430	0.876170	0.548400
H1001	H100	0.008700	0.883560	0.495900
H1011	H101	0.637500	0.375590	0.630770
H1021	H102	0.573600	0.508690	0.641560
H1031	H103	0.646380	0.521690	0.405940
H1041	H104	0.702600	0.390680	0.405800
H1051	H105	0.514230	0.632000	0.572680
H1061	H106	0.545910	0.633570	0.473990
H1071	H107	0.653020	0.625120	0.512600
H1081	H108	0.920130	0.517500	0.875000
H1091	H109	0.986780	0.382900	0.871230
H1101	H110	0.890300	0.617050	0.999100
