data_YEHGID_clean_PM
_symmetry_space_group_name_H-M	'P1'
_cell_length_a	22.661000
_cell_length_b	32.050000
_cell_length_c	41.940000
_cell_angle_alpha	90.000000
_cell_angle_beta	90.000000
_cell_angle_gamma	90.000000
_symmetry_Int_Tables_number 1

loop_
_symmetry_equiv_pos_as_xyz
'x,y,z'

loop_
_atom_site_label
_atom_site_type_symbol
_atom_site_fract_x
_atom_site_fract_y
_atom_site_fract_z
Fe11	Fe1	0.465930	0.362570	0.011450
Fe21	Fe2	0.837550	0.109650	0.959980
Fe31	Fe3	0.399970	0.447610	0.984600
Fe41	Fe4	0.098500	0.389730	0.775380
Fe51	Fe5	0.075430	0.362630	0.701490
Fe61	Fe6	0.031420	0.906500	0.757580
Fe71	Fe7	0.693240	0.383760	0.538160
Fe81	Fe8	0.070330	0.157350	0.486950
Fe91	Fe9	0.120570	0.071630	0.520290
Fe101	Fe10	0.439060	0.152510	0.807590
Fe111	Fe11	0.462980	0.619780	0.745000
Fe121	Fe12	0.398180	0.136580	0.734770
Fe131	Fe13	0.034070	0.637430	0.511450
Fe141	Fe14	0.662450	0.890350	0.459980
Fe151	Fe15	0.100030	0.552390	0.484600
Fe161	Fe16	0.401500	0.610270	0.275380
Fe171	Fe17	0.424570	0.637370	0.201490
Fe181	Fe18	0.468580	0.093500	0.257580
Fe191	Fe19	0.806760	0.616240	0.038160
Fe201	Fe20	0.429670	0.842650	0.986950
Fe211	Fe21	0.379430	0.928370	0.020290
Fe221	Fe22	0.060940	0.847490	0.307590
Fe231	Fe23	0.037020	0.380220	0.245000
Fe241	Fe24	0.101820	0.863420	0.234770
Fe251	Fe25	0.534070	0.862570	0.488550
Fe261	Fe26	0.162450	0.609650	0.540020
Fe271	Fe27	0.600030	0.947610	0.515400
Fe281	Fe28	0.901500	0.889730	0.724620
Fe291	Fe29	0.924570	0.862630	0.798510
Fe301	Fe30	0.968580	0.406500	0.742420
Fe311	Fe31	0.306760	0.883760	0.961840
Fe321	Fe32	0.929670	0.657350	0.013050
Fe331	Fe33	0.879430	0.571630	0.979710
Fe341	Fe34	0.560940	0.652510	0.692410
Fe351	Fe35	0.537020	0.119780	0.755000
Fe361	Fe36	0.601820	0.636580	0.765230
Fe371	Fe37	0.965930	0.137430	0.988550
Fe381	Fe38	0.337550	0.390350	0.040020
Fe391	Fe39	0.899970	0.052390	0.015400
Fe401	Fe40	0.598500	0.110270	0.224620
Fe411	Fe41	0.575430	0.137370	0.298510
Fe421	Fe42	0.531420	0.593500	0.242420
Fe431	Fe43	0.193240	0.116240	0.461840
Fe441	Fe44	0.570330	0.342650	0.513050
Fe451	Fe45	0.620570	0.428370	0.479710
Fe461	Fe46	0.939060	0.347490	0.192410
Fe471	Fe47	0.962980	0.880220	0.255000
Fe481	Fe48	0.898180	0.363420	0.265230
H11	H1	0.425900	0.235600	0.007600
H21	H2	0.406400	0.164700	0.000500
H31	H3	0.316300	0.148300	0.020500
H41	H4	0.240200	0.189100	0.041800
H51	H5	0.268100	0.261000	0.040000
H61	H6	0.544100	0.347900	0.095900
H71	H7	0.593700	0.353700	0.147600
H81	H8	0.540400	0.366600	0.192300
H91	H9	0.450900	0.402000	0.190100
H101	H10	0.406300	0.406500	0.135400
H111	H11	0.794500	0.001900	0.902800
H121	H12	0.783500	0.943900	0.869300
H131	H13	0.789300	0.886200	0.890400
H141	H14	0.834600	0.873400	0.940700
H151	H15	0.861100	0.934600	0.973400
H161	H16	0.487500	0.309300	0.917100
H171	H17	0.482600	0.276900	0.868700
H181	H18	0.443500	0.320600	0.830900
H191	H19	0.417300	0.389500	0.833600
H201	H20	0.394800	0.403900	0.888600
H211	H21	0.619800	0.430500	0.041000
H221	H22	0.686600	0.467400	0.067400
H231	H23	0.698600	0.534200	0.049500
H241	H24	0.635700	0.562900	0.013100
H251	H25	0.568100	0.521700	0.991300
H261	H26	0.790600	0.084500	0.892800
H271	H27	0.719700	0.096700	0.855700
H281	H28	0.642700	0.130600	0.875100
H291	H29	0.723600	0.158600	0.954900
H301	H30	0.513400	0.285800	0.974700
H311	H31	0.671300	0.250400	0.998000
H321	H32	0.671600	0.304000	0.033700
H331	H33	0.590800	0.347700	0.041500
H341	H34	0.439400	0.540200	0.975500
H351	H35	0.433100	0.594200	0.940000
H361	H36	0.383600	0.582600	0.888500
H371	H37	0.350500	0.470600	0.918900
H381	H38	0.250700	0.405100	0.885300
H391	H39	0.190600	0.353700	0.883700
H401	H40	0.129500	0.343000	0.839800
H411	H41	0.193900	0.444300	0.802700
H421	H42	0.025800	0.364500	0.866800
H431	H43	0.976100	0.347500	0.916500
H441	H44	0.881900	0.338600	0.915700
H451	H45	0.831200	0.337300	0.869200
H461	H46	0.869600	0.371300	0.825500
H471	H47	0.132900	0.533000	0.783400
H481	H48	0.139200	0.607400	0.782300
H491	H49	0.045700	0.637100	0.772200
H501	H50	0.961300	0.604400	0.760100
H511	H51	0.955300	0.530400	0.765600
H521	H52	0.079600	0.466900	0.632100
H531	H53	0.067700	0.514500	0.592500
H541	H54	0.981800	0.555200	0.585300
H551	H55	0.906800	0.520800	0.611200
H561	H56	0.910100	0.486000	0.661500
H571	H57	0.939900	0.286400	0.643300
H581	H58	0.860500	0.261900	0.606500
H591	H59	0.765100	0.284000	0.622100
H601	H60	0.745600	0.310000	0.671700
H611	H61	0.824000	0.343300	0.703600
H621	H62	0.275200	0.447400	0.755100
H631	H63	0.360000	0.477300	0.744400
H641	H64	0.396400	0.462600	0.693200
H651	H65	0.353700	0.407900	0.662600
H661	H66	0.256200	0.397000	0.669400
H671	H67	0.157700	0.270500	0.801000
H681	H68	0.186200	0.200700	0.813100
H691	H69	0.199400	0.156400	0.770500
H701	H70	0.147200	0.169100	0.722900
H711	H71	0.134800	0.241700	0.711800
H721	H72	0.166300	0.307800	0.667400
H731	H73	0.192500	0.276100	0.619200
H741	H74	0.109200	0.272600	0.581500
H751	H75	0.026300	0.356500	0.635500
H761	H76	0.884700	0.283600	0.492600
H771	H77	0.887600	0.242700	0.445500
H781	H78	0.966500	0.197900	0.440400
H791	H79	0.033700	0.238600	0.519200
H801	H80	0.823200	0.350200	0.543600
H811	H81	0.910100	0.395400	0.619800
H821	H82	0.830700	0.435700	0.632200
H831	H83	0.733200	0.412500	0.606800
H841	H84	0.154400	0.909200	0.790200
H851	H85	0.239000	0.954200	0.788400
H861	H86	0.259600	0.981500	0.738800
H871	H87	0.101600	0.949100	0.709400
H881	H88	0.165200	0.054700	0.585600
H891	H89	0.093700	0.951000	0.620500
H901	H90	0.065000	0.934500	0.568700
H911	H91	0.059900	0.986500	0.533100
H921	H92	0.328700	0.195900	0.689800
H931	H93	0.258300	0.195400	0.649600
H941	H94	0.213000	0.131400	0.640200
H951	H95	0.313700	0.079000	0.705500
H961	H96	0.244400	0.059900	0.755600
H971	H97	0.148100	0.047800	0.775700
H981	H98	0.100500	0.060700	0.825000
H991	H99	0.170400	0.092200	0.863200
H1001	H100	0.264800	0.112100	0.846500
H1011	H101	0.625800	0.503400	0.781300
H1021	H102	0.645700	0.435200	0.768600
H1031	H103	0.571600	0.387600	0.748200
H1041	H104	0.483800	0.421400	0.730700
H1051	H105	0.462000	0.490600	0.741600
H1061	H106	0.290400	0.251500	0.729600
H1071	H107	0.248900	0.313900	0.727400
H1081	H108	0.256100	0.355700	0.769600
H1091	H109	0.300100	0.339900	0.817600
H1101	H110	0.335800	0.268800	0.819600
H1111	H111	0.559200	0.700000	0.849800
H1121	H112	0.540400	0.718600	0.903100
H1131	H113	0.445500	0.704200	0.922600
H1141	H114	0.372400	0.668500	0.888800
H1151	H115	0.403300	0.649100	0.835700
H1161	H116	0.561800	0.225900	0.852100
H1171	H117	0.630900	0.273600	0.876200
H1181	H118	0.729800	0.268200	0.860100
H1191	H119	0.755600	0.225200	0.817800
H1201	H120	0.687200	0.185800	0.791800
H1211	H121	0.500600	0.075800	0.882900
H1221	H122	0.534600	0.030400	0.920000
H1231	H123	0.634500	0.000600	0.911900
H1241	H124	0.674400	0.009500	0.862400
H1251	H125	0.625800	0.043200	0.821700
H1261	H126	0.339900	0.605400	0.714000
H1271	H127	0.245400	0.582100	0.723300
H1281	H128	0.236600	0.538800	0.766200
H1291	H129	0.398000	0.567700	0.798400
H1301	H130	0.339900	0.182700	0.853300
H1311	H131	0.339300	0.229200	0.901900
H1321	H132	0.419100	0.220800	0.933900
H1331	H133	0.511500	0.161800	0.868700
H1341	H134	0.191500	0.000800	0.404600
H1351	H135	0.182100	0.939100	0.378000
H1361	H136	0.113600	0.888800	0.392800
H1371	H137	0.066600	0.905200	0.435400
H1381	H138	0.095200	0.953700	0.468400
H1391	H139	0.648600	0.376200	0.636900
H1401	H140	0.632000	0.370800	0.690300
H1411	H141	0.574300	0.308900	0.699500
H1421	H142	0.499900	0.283400	0.663700
H1431	H143	0.514500	0.309700	0.607400
H1441	H144	0.964200	0.007900	0.505300
H1451	H145	0.874400	0.967900	0.495600
H1461	H146	0.788400	0.008100	0.476100
H1471	H147	0.810600	0.072200	0.457600
H1481	H148	0.890900	0.115800	0.471000
H1491	H149	0.045700	0.206200	0.576400
H1501	H150	0.093900	0.098600	0.616300
H1511	H151	0.084400	0.130900	0.667700
H1521	H152	0.043300	0.197800	0.671300
H1531	H153	0.030900	0.237300	0.626200
H1541	H154	0.763200	0.280700	0.531400
H1551	H155	0.836800	0.222900	0.537800
H1561	H156	0.781200	0.160500	0.530600
H1571	H157	0.684900	0.145300	0.529700
H1581	H158	0.614400	0.206700	0.522200
H1591	H159	0.275300	0.065100	0.581200
H1601	H160	0.340000	0.092500	0.621100
H1611	H161	0.426000	0.109000	0.598000
H1621	H162	0.434400	0.144400	0.549500
H1631	H163	0.355700	0.133300	0.517200
H1641	H164	0.074100	0.764400	0.507600
H1651	H165	0.093600	0.835300	0.500500
H1661	H166	0.183700	0.851700	0.520500
H1671	H167	0.259800	0.810900	0.541800
H1681	H168	0.231900	0.739000	0.540000
H1691	H169	0.955900	0.652100	0.595900
H1701	H170	0.906300	0.646300	0.647600
H1711	H171	0.959600	0.633400	0.692300
H1721	H172	0.049100	0.598000	0.690100
H1731	H173	0.093700	0.593500	0.635400
H1741	H174	0.705500	0.998100	0.402800
H1751	H175	0.716500	0.056100	0.369300
H1761	H176	0.710700	0.113800	0.390400
H1771	H177	0.665400	0.126600	0.440700
H1781	H178	0.638900	0.065400	0.473400
H1791	H179	0.012500	0.690700	0.417100
H1801	H180	0.017400	0.723100	0.368700
H1811	H181	0.056500	0.679400	0.330900
H1821	H182	0.082700	0.610500	0.333600
H1831	H183	0.105200	0.596100	0.388600
H1841	H184	0.880200	0.569500	0.541000
H1851	H185	0.813400	0.532600	0.567400
H1861	H186	0.801400	0.465800	0.549500
H1871	H187	0.864300	0.437100	0.513100
H1881	H188	0.931900	0.478300	0.491300
H1891	H189	0.709400	0.915500	0.392800
H1901	H190	0.780300	0.903300	0.355700
H1911	H191	0.857300	0.869400	0.375100
H1921	H192	0.776400	0.841400	0.454900
H1931	H193	0.986600	0.714200	0.474700
H1941	H194	0.828700	0.749600	0.498000
H1951	H195	0.828400	0.696000	0.533700
H1961	H196	0.909200	0.652300	0.541500
H1971	H197	0.060600	0.459800	0.475500
H1981	H198	0.066900	0.405800	0.440000
H1991	H199	0.116400	0.417400	0.388500
H2001	H200	0.149500	0.529400	0.418900
H2011	H201	0.249300	0.594900	0.385300
H2021	H202	0.309400	0.646300	0.383700
H2031	H203	0.370500	0.657000	0.339800
H2041	H204	0.306100	0.555700	0.302700
H2051	H205	0.474200	0.635500	0.366800
H2061	H206	0.523900	0.652500	0.416500
H2071	H207	0.618100	0.661400	0.415700
H2081	H208	0.668800	0.662700	0.369200
H2091	H209	0.630400	0.628700	0.325500
H2101	H210	0.367100	0.467000	0.283400
H2111	H211	0.360800	0.392600	0.282300
H2121	H212	0.454300	0.362900	0.272200
H2131	H213	0.538700	0.395600	0.260100
H2141	H214	0.544700	0.469600	0.265600
H2151	H215	0.420400	0.533100	0.132100
H2161	H216	0.432300	0.485500	0.092500
H2171	H217	0.518200	0.444800	0.085300
H2181	H218	0.593200	0.479200	0.111200
H2191	H219	0.589900	0.514000	0.161500
H2201	H220	0.560100	0.713600	0.143300
H2211	H221	0.639500	0.738100	0.106500
H2221	H222	0.734900	0.716000	0.122100
H2231	H223	0.754400	0.690000	0.171700
H2241	H224	0.676000	0.656700	0.203600
H2251	H225	0.224800	0.552600	0.255100
H2261	H226	0.140000	0.522700	0.244400
H2271	H227	0.103600	0.537400	0.193200
H2281	H228	0.146300	0.592100	0.162600
H2291	H229	0.243800	0.603000	0.169400
H2301	H230	0.342300	0.729500	0.301000
H2311	H231	0.313800	0.799300	0.313100
H2321	H232	0.300600	0.843600	0.270500
H2331	H233	0.352800	0.830900	0.222900
H2341	H234	0.365200	0.758300	0.211800
H2351	H235	0.333700	0.692200	0.167400
H2361	H236	0.307500	0.723900	0.119200
H2371	H237	0.390800	0.727400	0.081500
H2381	H238	0.473700	0.643500	0.135500
H2391	H239	0.615300	0.716400	0.992600
H2401	H240	0.612400	0.757300	0.945500
H2411	H241	0.533500	0.802100	0.940400
H2421	H242	0.466300	0.761400	0.019200
H2431	H243	0.676800	0.649800	0.043600
H2441	H244	0.589900	0.604600	0.119800
H2451	H245	0.669300	0.564300	0.132200
H2461	H246	0.766800	0.587500	0.106800
H2471	H247	0.345600	0.090800	0.290200
H2481	H248	0.261000	0.045800	0.288400
H2491	H249	0.240400	0.018500	0.238800
H2501	H250	0.398400	0.050900	0.209400
H2511	H251	0.334800	0.945300	0.085600
H2521	H252	0.406300	0.049000	0.120500
H2531	H253	0.435000	0.065500	0.068700
H2541	H254	0.440100	0.013500	0.033100
H2551	H255	0.171300	0.804100	0.189800
H2561	H256	0.241700	0.804600	0.149600
H2571	H257	0.287000	0.868600	0.140200
H2581	H258	0.186300	0.921000	0.205500
H2591	H259	0.255600	0.940100	0.255600
H2601	H260	0.351900	0.952200	0.275700
H2611	H261	0.399500	0.939300	0.325000
H2621	H262	0.329600	0.907800	0.363200
H2631	H263	0.235200	0.887900	0.346500
H2641	H264	0.874200	0.496600	0.281300
H2651	H265	0.854300	0.564800	0.268600
H2661	H266	0.928400	0.612400	0.248200
H2671	H267	0.016200	0.578600	0.230700
H2681	H268	0.038000	0.509400	0.241600
H2691	H269	0.209600	0.748500	0.229600
H2701	H270	0.251100	0.686100	0.227400
H2711	H271	0.243900	0.644300	0.269600
H2721	H272	0.199900	0.660100	0.317600
H2731	H273	0.164200	0.731200	0.319600
H2741	H274	0.940800	0.300000	0.349800
H2751	H275	0.959600	0.281400	0.403100
H2761	H276	0.054500	0.295800	0.422600
H2771	H277	0.127600	0.331500	0.388800
H2781	H278	0.096700	0.350900	0.335700
H2791	H279	0.938200	0.774100	0.352100
H2801	H280	0.869100	0.726400	0.376200
H2811	H281	0.770200	0.731800	0.360100
H2821	H282	0.744400	0.774800	0.317800
H2831	H283	0.812800	0.814200	0.291800
H2841	H284	0.999400	0.924200	0.382900
H2851	H285	0.965400	0.969600	0.420000
H2861	H286	0.865500	0.999400	0.411900
H2871	H287	0.825600	0.990500	0.362400
H2881	H288	0.874200	0.956800	0.321700
H2891	H289	0.160100	0.394600	0.214000
H2901	H290	0.254600	0.417900	0.223300
H2911	H291	0.263400	0.461200	0.266200
H2921	H292	0.102000	0.432300	0.298400
H2931	H293	0.160100	0.817300	0.353300
H2941	H294	0.160700	0.770800	0.401900
H2951	H295	0.080900	0.779200	0.433900
H2961	H296	0.988500	0.838200	0.368700
H2971	H297	0.308500	0.999200	0.904600
H2981	H298	0.317900	0.060900	0.878000
H2991	H299	0.386400	0.111200	0.892800
H3001	H300	0.433400	0.094800	0.935400
H3011	H301	0.404800	0.046300	0.968400
H3021	H302	0.851400	0.623800	0.136900
H3031	H303	0.868000	0.629200	0.190300
H3041	H304	0.925700	0.691100	0.199500
H3051	H305	0.000100	0.716600	0.163700
H3061	H306	0.985500	0.690300	0.107400
H3071	H307	0.535800	0.992100	0.005300
H3081	H308	0.625600	0.032100	0.995600
H3091	H309	0.711600	0.991900	0.976100
H3101	H310	0.689400	0.927800	0.957600
H3111	H311	0.609100	0.884200	0.971000
H3121	H312	0.454300	0.793800	0.076400
H3131	H313	0.406100	0.901400	0.116300
H3141	H314	0.415600	0.869100	0.167700
H3151	H315	0.456700	0.802200	0.171300
H3161	H316	0.469100	0.762700	0.126200
H3171	H317	0.736800	0.719300	0.031400
H3181	H318	0.663200	0.777100	0.037800
H3191	H319	0.718800	0.839500	0.030600
H3201	H320	0.815100	0.854700	0.029700
H3211	H321	0.885600	0.793300	0.022200
H3221	H322	0.224700	0.934900	0.081200
H3231	H323	0.160000	0.907500	0.121100
H3241	H324	0.074000	0.891000	0.098000
H3251	H325	0.065600	0.855600	0.049500
H3261	H326	0.144300	0.866700	0.017200
H3271	H327	0.574100	0.735600	0.492400
H3281	H328	0.593600	0.664700	0.499500
H3291	H329	0.683700	0.648300	0.479500
H3301	H330	0.759800	0.689100	0.458200
H3311	H331	0.731900	0.761000	0.460000
H3321	H332	0.455900	0.847900	0.404100
H3331	H333	0.406300	0.853700	0.352400
H3341	H334	0.459600	0.866600	0.307700
H3351	H335	0.549100	0.902000	0.309900
H3361	H336	0.593700	0.906500	0.364600
H3371	H337	0.205500	0.501900	0.597200
H3381	H338	0.216500	0.443900	0.630700
H3391	H339	0.210700	0.386200	0.609600
H3401	H340	0.165400	0.373400	0.559300
H3411	H341	0.138900	0.434600	0.526600
H3421	H342	0.512500	0.809300	0.582900
H3431	H343	0.517400	0.776900	0.631300
H3441	H344	0.556500	0.820600	0.669100
H3451	H345	0.582700	0.889500	0.666400
H3461	H346	0.605200	0.903900	0.611400
H3471	H347	0.380200	0.930500	0.459000
H3481	H348	0.313400	0.967400	0.432600
H3491	H349	0.301400	0.034200	0.450500
H3501	H350	0.364300	0.062900	0.486900
H3511	H351	0.431900	0.021700	0.508700
H3521	H352	0.209400	0.584500	0.607200
H3531	H353	0.280300	0.596700	0.644300
H3541	H354	0.357300	0.630600	0.624900
H3551	H355	0.276400	0.658600	0.545100
H3561	H356	0.486600	0.785800	0.525300
H3571	H357	0.328700	0.750400	0.502000
H3581	H358	0.328400	0.804000	0.466300
H3591	H359	0.409200	0.847700	0.458500
H3601	H360	0.560600	0.040200	0.524500
H3611	H361	0.566900	0.094200	0.560000
H3621	H362	0.616400	0.082600	0.611500
H3631	H363	0.649500	0.970600	0.581100
H3641	H364	0.749300	0.905100	0.614700
H3651	H365	0.809400	0.853700	0.616300
H3661	H366	0.870500	0.843000	0.660200
H3671	H367	0.806100	0.944300	0.697300
H3681	H368	0.974200	0.864500	0.633200
H3691	H369	0.023900	0.847500	0.583500
H3701	H370	0.118100	0.838600	0.584300
H3711	H371	0.168800	0.837300	0.630800
H3721	H372	0.130400	0.871300	0.674500
H3731	H373	0.867100	0.033000	0.716600
H3741	H374	0.860800	0.107400	0.717700
H3751	H375	0.954300	0.137100	0.727800
H3761	H376	0.038700	0.104400	0.739900
H3771	H377	0.044700	0.030400	0.734400
H3781	H378	0.920400	0.966900	0.867900
H3791	H379	0.932300	0.014500	0.907500
H3801	H380	0.018200	0.055200	0.914700
H3811	H381	0.093200	0.020800	0.888800
H3821	H382	0.089900	0.986000	0.838500
H3831	H383	0.060100	0.786400	0.856700
H3841	H384	0.139500	0.761900	0.893500
H3851	H385	0.234900	0.784000	0.877900
H3861	H386	0.254400	0.810000	0.828300
H3871	H387	0.176000	0.843300	0.796400
H3881	H388	0.724800	0.947400	0.744900
H3891	H389	0.640000	0.977300	0.755600
H3901	H390	0.603600	0.962600	0.806800
H3911	H391	0.646300	0.907900	0.837400
H3921	H392	0.743800	0.897000	0.830600
H3931	H393	0.842300	0.770500	0.699000
H3941	H394	0.813800	0.700700	0.686900
H3951	H395	0.800600	0.656400	0.729500
H3961	H396	0.852800	0.669100	0.777100
H3971	H397	0.865200	0.741700	0.788200
H3981	H398	0.833700	0.807800	0.832600
H3991	H399	0.807500	0.776100	0.880800
H4001	H400	0.890800	0.772600	0.918500
H4011	H401	0.973700	0.856500	0.864500
H4021	H402	0.115300	0.783600	0.007400
H4031	H403	0.112400	0.742700	0.054500
H4041	H404	0.033500	0.697900	0.059600
H4051	H405	0.966300	0.738600	0.980800
H4061	H406	0.176800	0.850200	0.956400
H4071	H407	0.089900	0.895400	0.880200
H4081	H408	0.169300	0.935700	0.867800
H4091	H409	0.266800	0.912500	0.893200
H4101	H410	0.845600	0.409200	0.709800
H4111	H411	0.761000	0.454200	0.711600
H4121	H412	0.740400	0.481500	0.761200
H4131	H413	0.898400	0.449100	0.790600
H4141	H414	0.834800	0.554700	0.914400
H4151	H415	0.906300	0.451000	0.879500
H4161	H416	0.935000	0.434500	0.931300
H4171	H417	0.940100	0.486500	0.966900
H4181	H418	0.671300	0.695900	0.810200
H4191	H419	0.741700	0.695400	0.850400
H4201	H420	0.787000	0.631400	0.859800
H4211	H421	0.686300	0.579000	0.794500
H4221	H422	0.755600	0.559900	0.744400
H4231	H423	0.851900	0.547800	0.724300
H4241	H424	0.899500	0.560700	0.675000
H4251	H425	0.829600	0.592200	0.636800
H4261	H426	0.735200	0.612100	0.653500
H4271	H427	0.374200	0.003400	0.718700
H4281	H428	0.354300	0.935200	0.731400
H4291	H429	0.428400	0.887600	0.751800
H4301	H430	0.516200	0.921400	0.769300
H4311	H431	0.538000	0.990600	0.758400
H4321	H432	0.709600	0.751500	0.770400
H4331	H433	0.751100	0.813900	0.772600
H4341	H434	0.743900	0.855700	0.730400
H4351	H435	0.699900	0.839900	0.682400
H4361	H436	0.664200	0.768800	0.680400
H4371	H437	0.440800	0.200000	0.650200
H4381	H438	0.459600	0.218600	0.596900
H4391	H439	0.554500	0.204200	0.577400
H4401	H440	0.627600	0.168500	0.611200
H4411	H441	0.596700	0.149100	0.664300
H4421	H442	0.438200	0.725900	0.647900
H4431	H443	0.369100	0.773600	0.623800
H4441	H444	0.270200	0.768200	0.639900
H4451	H445	0.244400	0.725200	0.682200
H4461	H446	0.312800	0.685800	0.708200
H4471	H447	0.499400	0.575800	0.617100
H4481	H448	0.465400	0.530400	0.580000
H4491	H449	0.365500	0.500600	0.588100
H4501	H450	0.325600	0.509500	0.637600
H4511	H451	0.374200	0.543200	0.678300
H4521	H452	0.660100	0.105400	0.786000
H4531	H453	0.754600	0.082100	0.776700
H4541	H454	0.763400	0.038800	0.733800
H4551	H455	0.602000	0.067700	0.701600
H4561	H456	0.660100	0.682700	0.646700
H4571	H457	0.660700	0.729200	0.598100
H4581	H458	0.580900	0.720800	0.566100
H4591	H459	0.488500	0.661800	0.631300
H4601	H460	0.808500	0.500800	0.095400
H4611	H461	0.817900	0.439100	0.122000
H4621	H462	0.886400	0.388800	0.107200
H4631	H463	0.933400	0.405200	0.064600
H4641	H464	0.904800	0.453700	0.031600
H4651	H465	0.351400	0.876200	0.863100
H4661	H466	0.368000	0.870800	0.809700
H4671	H467	0.425700	0.808900	0.800500
H4681	H468	0.500100	0.783400	0.836300
H4691	H469	0.485500	0.809700	0.892600
H4701	H470	0.035800	0.507900	0.994700
H4711	H471	0.125600	0.467900	0.004400
H4721	H472	0.211600	0.508100	0.023900
H4731	H473	0.189400	0.572200	0.042400
H4741	H474	0.109100	0.615800	0.029000
H4751	H475	0.954300	0.706200	0.923600
H4761	H476	0.906100	0.598600	0.883700
H4771	H477	0.915600	0.630900	0.832300
H4781	H478	0.956700	0.697800	0.828700
H4791	H479	0.969100	0.737300	0.873800
H4801	H480	0.236800	0.780700	0.968600
H4811	H481	0.163200	0.722900	0.962200
H4821	H482	0.218800	0.660500	0.969400
H4831	H483	0.315100	0.645300	0.970300
H4841	H484	0.385600	0.706700	0.977800
H4851	H485	0.724700	0.565100	0.918800
H4861	H486	0.660000	0.592500	0.878900
H4871	H487	0.574000	0.609000	0.902000
H4881	H488	0.565600	0.644400	0.950500
H4891	H489	0.644300	0.633300	0.982800
H4901	H490	0.925900	0.264400	0.992400
H4911	H491	0.906400	0.335300	0.999500
H4921	H492	0.816300	0.351700	0.979500
H4931	H493	0.740200	0.310900	0.958200
H4941	H494	0.768100	0.239000	0.960000
H4951	H495	0.044100	0.152100	0.904100
H4961	H496	0.093700	0.146300	0.852400
H4971	H497	0.040400	0.133400	0.807700
H4981	H498	0.950900	0.098000	0.809900
H4991	H499	0.906300	0.093500	0.864600
H5001	H500	0.294500	0.498100	0.097200
H5011	H501	0.283500	0.556100	0.130700
H5021	H502	0.289300	0.613800	0.109600
H5031	H503	0.334600	0.626600	0.059300
H5041	H504	0.361100	0.565400	0.026600
H5051	H505	0.987500	0.190700	0.082900
H5061	H506	0.982600	0.223100	0.131300
H5071	H507	0.943500	0.179400	0.169100
H5081	H508	0.917300	0.110500	0.166400
H5091	H509	0.894800	0.096100	0.111400
H5101	H510	0.119800	0.069500	0.959000
H5111	H511	0.186600	0.032600	0.932600
H5121	H512	0.198600	0.965800	0.950500
H5131	H513	0.135700	0.937100	0.986900
H5141	H514	0.068100	0.978300	0.008700
H5151	H515	0.290600	0.415500	0.107200
H5161	H516	0.219700	0.403300	0.144300
H5171	H517	0.142700	0.369400	0.124900
H5181	H518	0.223600	0.341400	0.045100
H5191	H519	0.013400	0.214200	0.025300
H5201	H520	0.171300	0.249600	0.002000
H5211	H521	0.171600	0.196000	0.966300
H5221	H522	0.090800	0.152300	0.958500
H5231	H523	0.939400	0.959800	0.024500
H5241	H524	0.933100	0.905800	0.060000
H5251	H525	0.883600	0.917400	0.111500
H5261	H526	0.850500	0.029400	0.081100
H5271	H527	0.750700	0.094900	0.114700
H5281	H528	0.690600	0.146300	0.116300
H5291	H529	0.629500	0.157000	0.160200
H5301	H530	0.693900	0.055700	0.197300
H5311	H531	0.525800	0.135500	0.133200
H5321	H532	0.476100	0.152500	0.083500
H5331	H533	0.381900	0.161400	0.084300
H5341	H534	0.331200	0.162700	0.130800
H5351	H535	0.369600	0.128700	0.174500
H5361	H536	0.632900	0.967000	0.216600
H5371	H537	0.639200	0.892600	0.217700
H5381	H538	0.545700	0.862900	0.227800
H5391	H539	0.461300	0.895600	0.239900
H5401	H540	0.455300	0.969600	0.234400
H5411	H541	0.579600	0.033100	0.367900
H5421	H542	0.567700	0.985500	0.407500
H5431	H543	0.481800	0.944800	0.414700
H5441	H544	0.406800	0.979200	0.388800
H5451	H545	0.410100	0.014000	0.338500
H5461	H546	0.439900	0.213600	0.356700
H5471	H547	0.360500	0.238100	0.393500
H5481	H548	0.265100	0.216000	0.377900
H5491	H549	0.245600	0.190000	0.328300
H5501	H550	0.324000	0.156700	0.296400
H5511	H551	0.775200	0.052600	0.244900
H5521	H552	0.860000	0.022700	0.255600
H5531	H553	0.896400	0.037400	0.306800
H5541	H554	0.853700	0.092100	0.337400
H5551	H555	0.756200	0.103000	0.330600
H5561	H556	0.657700	0.229500	0.199000
H5571	H557	0.686200	0.299300	0.186900
H5581	H558	0.699400	0.343600	0.229500
H5591	H559	0.647200	0.330900	0.277100
H5601	H560	0.634800	0.258300	0.288200
H5611	H561	0.666300	0.192200	0.332600
H5621	H562	0.692500	0.223900	0.380800
H5631	H563	0.609200	0.227400	0.418500
H5641	H564	0.526300	0.143500	0.364500
H5651	H565	0.384700	0.216400	0.507400
H5661	H566	0.387600	0.257300	0.554500
H5671	H567	0.466500	0.302100	0.559600
H5681	H568	0.533700	0.261400	0.480800
H5691	H569	0.323200	0.149800	0.456400
H5701	H570	0.410100	0.104600	0.380200
H5711	H571	0.330700	0.064300	0.367800
H5721	H572	0.233200	0.087500	0.393200
H5731	H573	0.654400	0.590800	0.209800
H5741	H574	0.739000	0.545800	0.211600
H5751	H575	0.759600	0.518500	0.261200
H5761	H576	0.601600	0.550900	0.290600
H5771	H577	0.665200	0.445300	0.414400
H5781	H578	0.593700	0.549000	0.379500
H5791	H579	0.565000	0.565500	0.431300
H5801	H580	0.559900	0.513500	0.466900
H5811	H581	0.828700	0.304100	0.310200
H5821	H582	0.758300	0.304600	0.350400
H5831	H583	0.713000	0.368600	0.359800
H5841	H584	0.813700	0.421000	0.294500
H5851	H585	0.744400	0.440100	0.244400
H5861	H586	0.648100	0.452200	0.224300
H5871	H587	0.600500	0.439300	0.175000
H5881	H588	0.670400	0.407800	0.136800
H5891	H589	0.764800	0.387900	0.153500
H5901	H590	0.125800	0.996600	0.218700
H5911	H591	0.145700	0.064800	0.231400
H5921	H592	0.071600	0.112400	0.251800
H5931	H593	0.983800	0.078600	0.269300
H5941	H594	0.962000	0.009400	0.258400
H5951	H595	0.790400	0.248500	0.270400
H5961	H596	0.748900	0.186100	0.272600
H5971	H597	0.756100	0.144300	0.230400
H5981	H598	0.800100	0.160100	0.182400
H5991	H599	0.835800	0.231200	0.180400
H6001	H600	0.059200	0.800000	0.150200
H6011	H601	0.040400	0.781400	0.096900
H6021	H602	0.945500	0.795800	0.077400
H6031	H603	0.872400	0.831500	0.111200
H6041	H604	0.903300	0.850900	0.164300
H6051	H605	0.061800	0.274100	0.147900
H6061	H606	0.130900	0.226400	0.123800
H6071	H607	0.229800	0.231800	0.139900
H6081	H608	0.255600	0.274800	0.182200
H6091	H609	0.187200	0.314200	0.208200
H6101	H610	0.000600	0.424200	0.117100
H6111	H611	0.034600	0.469600	0.080000
H6121	H612	0.134500	0.499400	0.088100
H6131	H613	0.174400	0.490500	0.137600
H6141	H614	0.125800	0.456800	0.178300
H6151	H615	0.839900	0.894600	0.286000
H6161	H616	0.745400	0.917900	0.276700
H6171	H617	0.736600	0.961200	0.233800
H6181	H618	0.898000	0.932300	0.201600
H6191	H619	0.839900	0.317300	0.146700
H6201	H620	0.839300	0.270800	0.098100
H6211	H621	0.919100	0.279200	0.066100
H6221	H622	0.011500	0.338200	0.131300
H6231	H623	0.691500	0.499200	0.595400
H6241	H624	0.682100	0.560900	0.622000
H6251	H625	0.613600	0.611200	0.607200
H6261	H626	0.566600	0.594800	0.564600
H6271	H627	0.595200	0.546300	0.531600
H6281	H628	0.148600	0.123800	0.363100
H6291	H629	0.132000	0.129200	0.309700
H6301	H630	0.074300	0.191100	0.300500
H6311	H631	0.999900	0.216600	0.336300
H6321	H632	0.014500	0.190300	0.392600
H6331	H633	0.464200	0.492100	0.494700
H6341	H634	0.374400	0.532100	0.504400
H6351	H635	0.288400	0.491900	0.523900
H6361	H636	0.310600	0.427800	0.542400
H6371	H637	0.390900	0.384200	0.529000
H6381	H638	0.545700	0.293800	0.423600
H6391	H639	0.593900	0.401400	0.383700
H6401	H640	0.584400	0.369100	0.332300
H6411	H641	0.543300	0.302200	0.328700
H6421	H642	0.530900	0.262700	0.373800
H6431	H643	0.263200	0.219300	0.468600
H6441	H644	0.336800	0.277100	0.462200
H6451	H645	0.281200	0.339500	0.469400
H6461	H646	0.184900	0.354700	0.470300
H6471	H647	0.114400	0.293300	0.477800
H6481	H648	0.775300	0.434900	0.418800
H6491	H649	0.840000	0.407500	0.378900
H6501	H650	0.926000	0.391000	0.402000
H6511	H651	0.934400	0.355600	0.450500
H6521	H652	0.855700	0.366700	0.482800
C11	C1	0.378900	0.300900	0.019200
C21	C2	0.350800	0.258700	0.020200
C31	C3	0.387600	0.226900	0.012000
C41	C4	0.380000	0.184000	0.008900
C51	C5	0.324700	0.176700	0.020900
C61	C6	0.275800	0.199500	0.034000
C71	C7	0.294900	0.241400	0.032300
C81	C8	0.444600	0.369200	0.081400
C91	C9	0.469300	0.370200	0.114900
C101	C10	0.525200	0.357400	0.114200
C111	C11	0.553800	0.360100	0.145800
C121	C12	0.523300	0.371800	0.172600
C131	C13	0.468900	0.390900	0.172000
C141	C14	0.441100	0.391900	0.139100
C151	C15	0.776000	0.081700	0.013000
C161	C16	0.844300	0.013800	0.960300
C171	C17	0.821700	0.975100	0.941700
C181	C18	0.802900	0.975800	0.911300
C191	C19	0.794100	0.940900	0.890600
C201	C20	0.801200	0.909300	0.902200
C211	C21	0.827300	0.900500	0.933900
C221	C22	0.841200	0.936900	0.954100
C231	C23	0.445700	0.381400	0.943100
C241	C24	0.452200	0.363800	0.907500
C251	C25	0.471300	0.324100	0.900200
C261	C26	0.470200	0.304100	0.872700
C271	C27	0.446400	0.332400	0.851100
C281	C28	0.425900	0.372800	0.851100
C291	C29	0.421000	0.382800	0.883000
C301	C30	0.528200	0.441800	0.008400
C311	C31	0.573600	0.471100	0.017600
C321	C32	0.619200	0.459100	0.037200
C331	C33	0.662700	0.479200	0.051700
C341	C34	0.668100	0.518000	0.041400
C351	C35	0.631600	0.535300	0.019600
C361	C36	0.589700	0.510700	0.008100
C371	C37	0.760200	0.102600	0.898400
C381	C38	0.718400	0.107500	0.876200
C391	C39	0.676300	0.129400	0.887700
C401	C40	0.672700	0.151300	0.915700
C411	C41	0.722200	0.144500	0.935400
C421	C42	0.620700	0.180800	0.929500
C431	C43	0.522500	0.195700	0.923200
C441	C44	0.544200	0.289300	0.989100
C451	C45	0.590400	0.262000	0.985100
C461	C46	0.638400	0.267300	0.000900
C471	C47	0.637700	0.299000	0.021700
C481	C48	0.587100	0.326200	0.026800
C491	C49	0.420100	0.535600	0.956200
C501	C50	0.417400	0.568300	0.934800
C511	C51	0.389400	0.561500	0.903500
C521	C52	0.372200	0.519200	0.898400
C531	C53	0.371900	0.495000	0.922200
C541	C54	0.336200	0.514300	0.867100
C551	C55	0.274900	0.470000	0.843100
C561	C56	0.304800	0.530300	0.820800
C571	C57	0.234300	0.439500	0.844700
C581	C58	0.226300	0.404100	0.867500
C591	C59	0.191300	0.372500	0.866800
C601	C60	0.154100	0.366200	0.840500
C611	C61	0.193500	0.426400	0.820200
C621	C62	0.986800	0.377600	0.809100
C631	C63	0.953600	0.361700	0.839000
C641	C64	0.985300	0.359600	0.867000
C651	C65	0.955100	0.349600	0.897500
C661	C66	0.901600	0.344300	0.896700
C671	C67	0.870200	0.346500	0.869200
C681	C68	0.893600	0.361500	0.841900
C691	C69	0.041300	0.475200	0.770900
C701	C70	0.046300	0.523400	0.775500
C711	C71	0.098400	0.547900	0.779700
C721	C72	0.104800	0.592200	0.779000
C731	C73	0.047600	0.608100	0.772300
C741	C74	0.994200	0.588800	0.765900
C751	C75	0.990600	0.544800	0.768400
C761	C76	0.003500	0.436600	0.675400
C771	C77	0.996400	0.469500	0.649100
C781	C78	0.043200	0.479800	0.629500
C791	C79	0.035400	0.509700	0.605600
C801	C80	0.986100	0.532800	0.599200
C811	C81	0.944600	0.514800	0.618600
C821	C82	0.941600	0.488800	0.647500
C831	C83	0.888700	0.314900	0.677200
C841	C84	0.900700	0.292200	0.648200
C851	C85	0.853200	0.277000	0.625000
C861	C86	0.796800	0.289100	0.635600
C871	C87	0.784700	0.308300	0.665000
C881	C88	0.832000	0.326200	0.686200
C891	C89	0.196400	0.404300	0.720000
C901	C90	0.252400	0.417300	0.713900
C911	C91	0.290400	0.442900	0.734800
C921	C92	0.340600	0.460100	0.729900
C931	C93	0.362000	0.449800	0.700300
C941	C94	0.333400	0.419800	0.679600
C951	C95	0.278200	0.409700	0.685400
C961	C96	0.125200	0.305400	0.750700
C971	C97	0.139500	0.261800	0.756500
C981	C98	0.157300	0.250600	0.784900
C991	C99	0.176500	0.208600	0.792500
C1001	C100	0.179700	0.181600	0.767600
C1011	C101	0.154800	0.189800	0.737900
C1021	C102	0.141900	0.232900	0.732500
C1031	C103	0.140500	0.311800	0.650500
C1041	C104	0.156400	0.289300	0.622300
C1051	C105	0.108700	0.290000	0.599200
C1061	C106	0.064100	0.316300	0.604300
C1071	C107	0.058400	0.338800	0.632600
C1081	C108	0.014700	0.318500	0.579700
C1091	C109	0.966500	0.297000	0.540900
C1101	C110	0.922300	0.340700	0.568200
C1111	C111	0.966400	0.270300	0.510800
C1121	C112	0.917900	0.267300	0.488700
C1131	C113	0.916900	0.240900	0.461000
C1141	C114	0.962400	0.213100	0.459200
C1151	C115	0.002200	0.237700	0.505100
C1161	C116	0.993700	0.082200	0.497100
C1171	C117	0.820600	0.364500	0.562800
C1181	C118	0.869700	0.364700	0.582300
C1191	C119	0.874900	0.392900	0.608700
C1201	C120	0.829000	0.415000	0.616600
C1211	C121	0.768600	0.404200	0.597500
C1221	C122	0.158900	0.928000	0.773500
C1231	C123	0.212900	0.951600	0.771400
C1241	C124	0.222500	0.969900	0.742200
C1251	C125	0.184200	0.972900	0.718400
C1261	C126	0.129800	0.950500	0.725400
C1271	C127	0.187400	0.002600	0.692600
C1281	C128	0.223200	0.058600	0.671400
C1291	C129	0.173500	0.014600	0.638000
C1301	C130	0.142200	0.030700	0.584500
C1311	C131	0.141600	0.003900	0.613600
C1321	C132	0.104000	0.969600	0.604400
C1331	C133	0.080600	0.960700	0.573300
C1341	C134	0.081600	0.990100	0.551700
C1351	C135	0.313000	0.170200	0.683800
C1361	C136	0.268900	0.171300	0.660600
C1371	C137	0.242600	0.133000	0.655500
C1381	C138	0.256000	0.100200	0.670200
C1391	C139	0.304300	0.102600	0.693600
C1401	C140	0.325200	0.108000	0.789200
C1411	C141	0.266600	0.090200	0.800800
C1421	C142	0.231900	0.067800	0.775800
C1431	C143	0.172700	0.060800	0.790500
C1441	C144	0.139600	0.067500	0.820800
C1451	C145	0.181600	0.086900	0.842200
C1461	C146	0.241100	0.098300	0.831800
C1471	C147	0.540200	0.551700	0.769800
C1481	C148	0.541100	0.505500	0.763400
C1491	C149	0.597000	0.487300	0.771400
C1501	C150	0.608100	0.445300	0.764300
C1511	C151	0.565100	0.416100	0.750600
C1521	C152	0.511900	0.437000	0.741500
C1531	C153	0.498300	0.479600	0.747700
C1541	C154	0.368400	0.213200	0.771200
C1551	C155	0.333900	0.252000	0.772600
C1561	C156	0.296100	0.269000	0.747000
C1571	C157	0.269400	0.305400	0.745500
C1581	C158	0.273400	0.329500	0.771500
C1591	C159	0.299000	0.321500	0.800400
C1601	C160	0.324300	0.279400	0.800000
C1611	C161	0.496200	0.660300	0.808000
C1621	C162	0.487200	0.673400	0.843700
C1631	C163	0.523300	0.693000	0.859200
C1641	C164	0.512100	0.705300	0.890700
C1651	C165	0.455600	0.696400	0.902000
C1661	C166	0.410200	0.674200	0.881300
C1671	C167	0.427900	0.662500	0.850200
C1681	C168	0.562800	0.189700	0.797300
C1691	C169	0.614100	0.214600	0.811700
C1701	C170	0.598500	0.231300	0.843100
C1711	C171	0.641700	0.256100	0.859500
C1721	C172	0.700700	0.253100	0.849500
C1731	C173	0.716000	0.227500	0.823500
C1741	C174	0.675500	0.205900	0.806500
C1751	C175	0.526600	0.085100	0.823400
C1761	C176	0.559300	0.060200	0.850300
C1771	C177	0.533600	0.059400	0.878900
C1781	C178	0.555500	0.035200	0.901300
C1791	C179	0.614800	0.015500	0.896000
C1801	C180	0.637400	0.020900	0.866500
C1811	C181	0.610300	0.041800	0.842100
C1821	C182	0.330300	0.595400	0.734100
C1831	C183	0.275900	0.578100	0.737800
C1841	C184	0.270300	0.555100	0.763900
C1851	C185	0.314700	0.554100	0.789000
C1861	C186	0.366400	0.572100	0.784600
C1871	C187	0.373700	0.186400	0.865500
C1881	C188	0.371000	0.212300	0.896300
C1891	C189	0.420000	0.207700	0.914100
C1901	C190	0.466800	0.188200	0.907800
C1911	C191	0.474900	0.171100	0.875800
C1921	C192	0.157000	0.028200	0.464700
C1931	C193	0.151900	0.986200	0.443500
C1941	C194	0.170100	0.979500	0.414400
C1951	C195	0.160200	0.942800	0.396500
C1961	C196	0.121200	0.912700	0.404600
C1971	C197	0.098200	0.921700	0.429000
C1981	C198	0.113500	0.953700	0.448600
C1991	C199	0.601400	0.349700	0.584600
C2001	C200	0.589800	0.339100	0.616600
C2011	C201	0.619000	0.357700	0.643000
C2021	C202	0.613600	0.354600	0.674800
C2031	C203	0.573000	0.320900	0.679300
C2041	C204	0.529700	0.301700	0.657600
C2051	C205	0.541100	0.316400	0.623500
C2061	C206	0.935300	0.059800	0.492000
C2071	C207	0.931300	0.021600	0.497200
C2081	C208	0.876300	0.996300	0.491400
C2091	C209	0.825900	0.019500	0.478400
C2101	C210	0.839800	0.059900	0.470000
C2111	C211	0.888300	0.087500	0.475800
C2121	C212	0.076400	0.142900	0.556400
C2131	C213	0.053000	0.190500	0.594600
C2141	C214	0.072700	0.150100	0.590900
C2151	C215	0.082500	0.126300	0.618000
C2161	C216	0.074600	0.145600	0.649300
C2171	C217	0.052100	0.186600	0.651400
C2181	C218	0.043100	0.209700	0.624800
C2191	C219	0.675400	0.289400	0.526400
C2201	C220	0.693200	0.242600	0.528500
C2211	C221	0.752000	0.252800	0.531500
C2221	C222	0.796300	0.220900	0.534700
C2231	C223	0.758100	0.184400	0.531400
C2241	C224	0.697100	0.173000	0.529000
C2251	C225	0.655000	0.207500	0.525500
C2261	C226	0.253600	0.093300	0.524900
C2271	C227	0.304000	0.102600	0.546400
C2281	C228	0.303900	0.084900	0.576300
C2291	C229	0.345100	0.095700	0.599200
C2301	C230	0.392000	0.110900	0.585600
C2311	C231	0.400900	0.129700	0.555700
C2321	C232	0.354300	0.123000	0.537900
C2331	C233	0.934200	0.326900	0.702100
C2341	C234	0.582100	0.231300	0.962500
C2351	C235	0.121100	0.699100	0.519200
C2361	C236	0.149200	0.741300	0.520200
C2371	C237	0.112400	0.773100	0.512000
C2381	C238	0.120000	0.816000	0.508900
C2391	C239	0.175300	0.823300	0.520900
C2401	C240	0.224200	0.800500	0.534000
C2411	C241	0.205100	0.758600	0.532300
C2421	C242	0.055400	0.630800	0.581400
C2431	C243	0.030700	0.629800	0.614900
C2441	C244	0.974800	0.642600	0.614200
C2451	C245	0.946200	0.639900	0.645800
C2461	C246	0.976700	0.628200	0.672600
C2471	C247	0.031100	0.609100	0.672000
C2481	C248	0.058900	0.608100	0.639100
C2491	C249	0.724000	0.918300	0.513000
C2501	C250	0.655700	0.986200	0.460300
C2511	C251	0.678300	0.024900	0.441700
C2521	C252	0.697100	0.024200	0.411300
C2531	C253	0.705900	0.059100	0.390600
C2541	C254	0.698800	0.090700	0.402200
C2551	C255	0.672700	0.099500	0.433900
C2561	C256	0.658800	0.063100	0.454100
C2571	C257	0.054300	0.618600	0.443100
C2581	C258	0.047800	0.636200	0.407500
C2591	C259	0.028700	0.675900	0.400200
C2601	C260	0.029800	0.695900	0.372700
C2611	C261	0.053600	0.667600	0.351100
C2621	C262	0.074100	0.627200	0.351100
C2631	C263	0.079000	0.617200	0.383000
C2641	C264	0.971800	0.558200	0.508400
C2651	C265	0.926400	0.528900	0.517600
C2661	C266	0.880800	0.540900	0.537200
C2671	C267	0.837300	0.520800	0.551700
C2681	C268	0.831900	0.482000	0.541400
C2691	C269	0.868400	0.464700	0.519600
C2701	C270	0.910300	0.489300	0.508100
C2711	C271	0.739800	0.897400	0.398400
C2721	C272	0.781600	0.892500	0.376200
C2731	C273	0.823700	0.870600	0.387700
C2741	C274	0.827300	0.848700	0.415700
C2751	C275	0.777800	0.855500	0.435400
C2761	C276	0.879300	0.819200	0.429500
C2771	C277	0.977500	0.804300	0.423200
C2781	C278	0.955800	0.710700	0.489100
C2791	C279	0.909600	0.738000	0.485100
C2801	C280	0.861600	0.732700	0.500900
C2811	C281	0.862300	0.701000	0.521700
C2821	C282	0.912900	0.673800	0.526800
C2831	C283	0.079900	0.464400	0.456200
C2841	C284	0.082600	0.431700	0.434800
C2851	C285	0.110600	0.438500	0.403500
C2861	C286	0.127800	0.480800	0.398400
C2871	C287	0.128100	0.505000	0.422200
C2881	C288	0.163800	0.485700	0.367100
C2891	C289	0.225100	0.530000	0.343100
C2901	C290	0.195200	0.469700	0.320800
C2911	C291	0.265700	0.560500	0.344700
C2921	C292	0.273700	0.595900	0.367500
C2931	C293	0.308700	0.627500	0.366800
C2941	C294	0.345900	0.633800	0.340500
C2951	C295	0.306500	0.573600	0.320200
C2961	C296	0.513200	0.622400	0.309100
C2971	C297	0.546400	0.638300	0.339000
C2981	C298	0.514700	0.640400	0.367000
C2991	C299	0.544900	0.650400	0.397500
C3001	C300	0.598400	0.655700	0.396700
C3011	C301	0.629800	0.653500	0.369200
C3021	C302	0.606400	0.638500	0.341900
C3031	C303	0.458700	0.524800	0.270900
C3041	C304	0.453700	0.476600	0.275500
C3051	C305	0.401600	0.452100	0.279700
C3061	C306	0.395200	0.407800	0.279000
C3071	C307	0.452400	0.391900	0.272300
C3081	C308	0.505800	0.411200	0.265900
C3091	C309	0.509400	0.455200	0.268400
C3101	C310	0.496500	0.563400	0.175400
C3111	C311	0.503600	0.530500	0.149100
C3121	C312	0.456800	0.520200	0.129500
C3131	C313	0.464600	0.490300	0.105600
C3141	C314	0.513900	0.467200	0.099200
C3151	C315	0.555400	0.485200	0.118600
C3161	C316	0.558400	0.511200	0.147500
C3171	C317	0.611300	0.685100	0.177200
C3181	C318	0.599300	0.707800	0.148200
C3191	C319	0.646800	0.723000	0.125000
C3201	C320	0.703200	0.710900	0.135600
C3211	C321	0.715300	0.691700	0.165000
C3221	C322	0.668000	0.673800	0.186200
C3231	C323	0.303600	0.595700	0.220000
C3241	C324	0.247600	0.582700	0.213900
C3251	C325	0.209600	0.557100	0.234800
C3261	C326	0.159400	0.539900	0.229900
C3271	C327	0.138000	0.550200	0.200300
C3281	C328	0.166600	0.580200	0.179600
C3291	C329	0.221800	0.590300	0.185400
C3301	C330	0.374800	0.694600	0.250700
C3311	C331	0.360500	0.738200	0.256500
C3321	C332	0.342700	0.749400	0.284900
C3331	C333	0.323500	0.791400	0.292500
C3341	C334	0.320300	0.818400	0.267600
C3351	C335	0.345200	0.810200	0.237900
C3361	C336	0.358100	0.767100	0.232500
C3371	C337	0.359500	0.688200	0.150500
C3381	C338	0.343600	0.710700	0.122300
C3391	C339	0.391300	0.710000	0.099200
C3401	C340	0.435900	0.683700	0.104300
C3411	C341	0.441600	0.661200	0.132600
C3421	C342	0.485300	0.681500	0.079700
C3431	C343	0.533500	0.703000	0.040900
C3441	C344	0.577700	0.659300	0.068200
C3451	C345	0.533600	0.729700	0.010800
C3461	C346	0.582100	0.732700	0.988700
C3471	C347	0.583100	0.759100	0.961000
C3481	C348	0.537600	0.786900	0.959200
C3491	C349	0.497800	0.762300	0.005100
C3501	C350	0.506300	0.917800	0.997100
C3511	C351	0.679400	0.635500	0.062800
C3521	C352	0.630300	0.635300	0.082300
C3531	C353	0.625100	0.607100	0.108700
C3541	C354	0.671000	0.585000	0.116600
C3551	C355	0.731400	0.595800	0.097500
C3561	C356	0.341100	0.072000	0.273500
C3571	C357	0.287100	0.048400	0.271400
C3581	C358	0.277500	0.030100	0.242200
C3591	C359	0.315800	0.027100	0.218400
C3601	C360	0.370200	0.049500	0.225400
C3611	C361	0.312600	0.997400	0.192600
C3621	C362	0.276800	0.941400	0.171400
C3631	C363	0.326500	0.985400	0.138000
C3641	C364	0.357800	0.969300	0.084500
C3651	C365	0.358400	0.996100	0.113600
C3661	C366	0.396000	0.030400	0.104400
C3671	C367	0.419400	0.039300	0.073300
C3681	C368	0.418400	0.009900	0.051700
C3691	C369	0.187000	0.829800	0.183800
C3701	C370	0.231100	0.828700	0.160600
C3711	C371	0.257400	0.867000	0.155500
C3721	C372	0.244000	0.899800	0.170200
C3731	C373	0.195700	0.897400	0.193600
C3741	C374	0.174800	0.892000	0.289200
C3751	C375	0.233400	0.909800	0.300800
C3761	C376	0.268100	0.932200	0.275800
C3771	C377	0.327300	0.939200	0.290500
C3781	C378	0.360400	0.932500	0.320800
C3791	C379	0.318400	0.913100	0.342200
C3801	C380	0.258900	0.901700	0.331800
C3811	C381	0.959800	0.448300	0.269800
C3821	C382	0.958900	0.494500	0.263400
C3831	C383	0.903000	0.512700	0.271400
C3841	C384	0.891900	0.554700	0.264300
C3851	C385	0.934900	0.583900	0.250600
C3861	C386	0.988100	0.563000	0.241500
C3871	C387	0.001700	0.520400	0.247700
C3881	C388	0.131600	0.786800	0.271200
C3891	C389	0.166100	0.748000	0.272600
C3901	C390	0.203900	0.731000	0.247000
C3911	C391	0.230600	0.694600	0.245500
C3921	C392	0.226600	0.670500	0.271500
C3931	C393	0.201000	0.678500	0.300400
C3941	C394	0.175700	0.720600	0.300000
C3951	C395	0.003800	0.339700	0.308000
C3961	C396	0.012800	0.326600	0.343700
C3971	C397	0.976700	0.307000	0.359200
C3981	C398	0.987900	0.294700	0.390700
C3991	C399	0.044400	0.303600	0.402000
C4001	C400	0.089800	0.325800	0.381300
C4011	C401	0.072100	0.337500	0.350200
C4021	C402	0.937200	0.810300	0.297300
C4031	C403	0.885900	0.785400	0.311700
C4041	C404	0.901500	0.768700	0.343100
C4051	C405	0.858300	0.743900	0.359500
C4061	C406	0.799300	0.746900	0.349500
C4071	C407	0.784000	0.772500	0.323500
C4081	C408	0.824500	0.794100	0.306500
C4091	C409	0.973400	0.914900	0.323400
C4101	C410	0.940700	0.939800	0.350300
C4111	C411	0.966400	0.940600	0.378900
C4121	C412	0.944500	0.964800	0.401300
C4131	C413	0.885200	0.984500	0.396000
C4141	C414	0.862600	0.979100	0.366500
C4151	C415	0.889700	0.958200	0.342100
C4161	C416	0.169700	0.404600	0.234100
C4171	C417	0.224100	0.421900	0.237800
C4181	C418	0.229700	0.444900	0.263900
C4191	C419	0.185300	0.445900	0.289000
C4201	C420	0.133600	0.427900	0.284600
C4211	C421	0.126300	0.813600	0.365500
C4221	C422	0.129000	0.787700	0.396300
C4231	C423	0.080000	0.792300	0.414100
C4241	C424	0.033200	0.811800	0.407800
C4251	C425	0.025100	0.828900	0.375800
C4261	C426	0.343000	0.971800	0.964700
C4271	C427	0.348100	0.013800	0.943500
C4281	C428	0.329900	0.020500	0.914400
C4291	C429	0.339800	0.057200	0.896500
C4301	C430	0.378800	0.087300	0.904600
C4311	C431	0.401800	0.078300	0.929000
C4321	C432	0.386500	0.046300	0.948600
C4331	C433	0.898600	0.650300	0.084600
C4341	C434	0.910200	0.660900	0.116600
C4351	C435	0.881000	0.642300	0.143000
C4361	C436	0.886400	0.645400	0.174800
C4371	C437	0.927000	0.679100	0.179300
C4381	C438	0.970300	0.698300	0.157600
C4391	C439	0.958900	0.683600	0.123500
C4401	C440	0.564700	0.940200	0.992000
C4411	C441	0.568700	0.978400	0.997200
C4421	C442	0.623700	0.003700	0.991400
C4431	C443	0.674100	0.980500	0.978400
C4441	C444	0.660200	0.940100	0.970000
C4451	C445	0.611700	0.912500	0.975800
C4461	C446	0.423600	0.857100	0.056400
C4471	C447	0.447000	0.809500	0.094600
C4481	C448	0.427300	0.849900	0.090900
C4491	C449	0.417500	0.873700	0.118000
C4501	C450	0.425400	0.854400	0.149300
C4511	C451	0.447900	0.813400	0.151400
C4521	C452	0.456900	0.790300	0.124800
C4531	C453	0.824600	0.710600	0.026400
C4541	C454	0.806800	0.757400	0.028500
C4551	C455	0.748000	0.747200	0.031500
C4561	C456	0.703700	0.779100	0.034700
C4571	C457	0.741900	0.815600	0.031400
C4581	C458	0.802900	0.827000	0.029000
C4591	C459	0.845000	0.792500	0.025500
C4601	C460	0.246400	0.906700	0.024900
C4611	C461	0.196000	0.897400	0.046400
C4621	C462	0.196100	0.915100	0.076300
C4631	C463	0.154900	0.904300	0.099200
C4641	C464	0.108000	0.889100	0.085600
C4651	C465	0.099100	0.870300	0.055700
C4661	C466	0.145700	0.877000	0.037900
C4671	C467	0.565800	0.673100	0.202100
C4681	C468	0.917900	0.768700	0.462500
C4691	C469	0.621100	0.800900	0.480800
C4701	C470	0.649200	0.758700	0.479800
C4711	C471	0.612400	0.726900	0.488000
C4721	C472	0.620000	0.684000	0.491100
C4731	C473	0.675300	0.676700	0.479100
C4741	C474	0.724200	0.699500	0.466000
C4751	C475	0.705100	0.741400	0.467700
C4761	C476	0.555400	0.869200	0.418600
C4771	C477	0.530700	0.870200	0.385100
C4781	C478	0.474800	0.857400	0.385800
C4791	C479	0.446200	0.860100	0.354200
C4801	C480	0.476700	0.871800	0.327400
C4811	C481	0.531100	0.890900	0.328000
C4821	C482	0.558900	0.891900	0.360900
C4831	C483	0.224000	0.581700	0.487000
C4841	C484	0.155700	0.513800	0.539700
C4851	C485	0.178300	0.475100	0.558300
C4861	C486	0.197100	0.475800	0.588700
C4871	C487	0.205900	0.440900	0.609400
C4881	C488	0.198800	0.409300	0.597800
C4891	C489	0.172700	0.400500	0.566100
C4901	C490	0.158800	0.436900	0.545900
C4911	C491	0.554300	0.881400	0.556900
C4921	C492	0.547800	0.863800	0.592500
C4931	C493	0.528700	0.824100	0.599800
C4941	C494	0.529800	0.804100	0.627300
C4951	C495	0.553600	0.832400	0.648900
C4961	C496	0.574100	0.872800	0.648900
C4971	C497	0.579000	0.882800	0.617000
C4981	C498	0.471800	0.941800	0.491600
C4991	C499	0.426400	0.971100	0.482400
C5001	C500	0.380800	0.959100	0.462800
C5011	C501	0.337300	0.979200	0.448300
C5021	C502	0.331900	0.018000	0.458600
C5031	C503	0.368400	0.035300	0.480400
C5041	C504	0.410300	0.010700	0.491900
C5051	C505	0.239800	0.602600	0.601600
C5061	C506	0.281600	0.607500	0.623800
C5071	C507	0.323700	0.629400	0.612300
C5081	C508	0.327300	0.651300	0.584300
C5091	C509	0.277800	0.644500	0.564600
C5101	C510	0.379300	0.680800	0.570500
C5111	C511	0.477500	0.695700	0.576800
C5121	C512	0.455800	0.789300	0.510900
C5131	C513	0.409600	0.762000	0.514900
C5141	C514	0.361600	0.767300	0.499100
C5151	C515	0.362300	0.799000	0.478300
C5161	C516	0.412900	0.826200	0.473200
C5171	C517	0.579900	0.035600	0.543800
C5181	C518	0.582600	0.068300	0.565200
C5191	C519	0.610600	0.061500	0.596500
C5201	C520	0.627800	0.019200	0.601600
C5211	C521	0.628100	0.995000	0.577800
C5221	C522	0.663800	0.014300	0.632900
C5231	C523	0.725100	0.970000	0.656900
C5241	C524	0.695200	0.030300	0.679200
C5251	C525	0.765700	0.939500	0.655300
C5261	C526	0.773700	0.904100	0.632500
C5271	C527	0.808700	0.872500	0.633200
C5281	C528	0.845900	0.866200	0.659500
C5291	C529	0.806500	0.926400	0.679800
C5301	C530	0.013200	0.877600	0.690900
C5311	C531	0.046400	0.861700	0.661000
C5321	C532	0.014700	0.859600	0.633000
C5331	C533	0.044900	0.849600	0.602500
C5341	C534	0.098400	0.844300	0.603300
C5351	C535	0.129800	0.846500	0.630800
C5361	C536	0.106400	0.861500	0.658100
C5371	C537	0.958700	0.975200	0.729100
C5381	C538	0.953700	0.023400	0.724500
C5391	C539	0.901600	0.047900	0.720300
C5401	C540	0.895200	0.092200	0.721000
C5411	C541	0.952400	0.108100	0.727700
C5421	C542	0.005800	0.088800	0.734100
C5431	C543	0.009400	0.044800	0.731600
C5441	C544	0.996500	0.936600	0.824600
C5451	C545	0.003600	0.969500	0.850900
C5461	C546	0.956800	0.979800	0.870500
C5471	C547	0.964600	0.009700	0.894400
C5481	C548	0.013900	0.032800	0.900800
C5491	C549	0.055400	0.014800	0.881400
C5501	C550	0.058400	0.988800	0.852500
C5511	C551	0.111300	0.814900	0.822800
C5521	C552	0.099300	0.792200	0.851800
C5531	C553	0.146800	0.777000	0.875000
C5541	C554	0.203200	0.789100	0.864400
C5551	C555	0.215300	0.808300	0.835000
C5561	C556	0.168000	0.826200	0.813800
C5571	C557	0.803600	0.904300	0.780000
C5581	C558	0.747600	0.917300	0.786100
C5591	C559	0.709600	0.942900	0.765200
C5601	C560	0.659400	0.960100	0.770100
C5611	C561	0.638000	0.949800	0.799700
C5621	C562	0.666600	0.919800	0.820400
C5631	C563	0.721800	0.909700	0.814600
C5641	C564	0.874800	0.805400	0.749300
C5651	C565	0.860500	0.761800	0.743500
C5661	C566	0.842700	0.750600	0.715100
C5671	C567	0.823500	0.708600	0.707500
C5681	C568	0.820300	0.681600	0.732400
C5691	C569	0.845200	0.689800	0.762100
C5701	C570	0.858100	0.732900	0.767500
C5711	C571	0.859500	0.811800	0.849500
C5721	C572	0.843600	0.789300	0.877700
C5731	C573	0.891300	0.790000	0.900800
C5741	C574	0.935900	0.816300	0.895700
C5751	C575	0.941600	0.838800	0.867400
C5761	C576	0.985300	0.818500	0.920300
C5771	C577	0.033500	0.797000	0.959100
C5781	C578	0.077700	0.840700	0.931800
C5791	C579	0.033600	0.770300	0.989200
C5801	C580	0.082100	0.767300	0.011300
C5811	C581	0.083100	0.740900	0.039000
C5821	C582	0.037600	0.713100	0.040800
C5831	C583	0.997800	0.737700	0.994900
C5841	C584	0.006300	0.582200	0.002900
C5851	C585	0.179400	0.864500	0.937200
C5861	C586	0.130300	0.864700	0.917700
C5871	C587	0.125100	0.892900	0.891300
C5881	C588	0.171000	0.915000	0.883400
C5891	C589	0.231400	0.904200	0.902500
C5901	C590	0.841100	0.428000	0.726500
C5911	C591	0.787100	0.451600	0.728600
C5921	C592	0.777500	0.469900	0.757800
C5931	C593	0.815800	0.472900	0.781600
C5941	C594	0.870200	0.450500	0.774600
C5951	C595	0.812600	0.502600	0.807400
C5961	C596	0.776800	0.558600	0.828600
C5971	C597	0.826500	0.514600	0.862000
C5981	C598	0.857800	0.530700	0.915500
C5991	C599	0.858400	0.503900	0.886400
C6001	C600	0.896000	0.469600	0.895600
C6011	C601	0.919400	0.460700	0.926700
C6021	C602	0.918400	0.490100	0.948300
C6031	C603	0.687000	0.670200	0.816200
C6041	C604	0.731100	0.671300	0.839400
C6051	C605	0.757400	0.633000	0.844500
C6061	C606	0.744000	0.600200	0.829800
C6071	C607	0.695700	0.602600	0.806400
C6081	C608	0.674800	0.608000	0.710800
C6091	C609	0.733400	0.590200	0.699200
C6101	C610	0.768100	0.567800	0.724200
C6111	C611	0.827300	0.560800	0.709500
C6121	C612	0.860400	0.567500	0.679200
C6131	C613	0.818400	0.586900	0.657800
C6141	C614	0.758900	0.598300	0.668200
C6151	C615	0.459800	0.051700	0.730200
C6161	C616	0.458900	0.005500	0.736600
C6171	C617	0.403000	0.987300	0.728600
C6181	C618	0.391900	0.945300	0.735700
C6191	C619	0.434900	0.916100	0.749400
C6201	C620	0.488100	0.937000	0.758500
C6211	C621	0.501700	0.979600	0.752300
C6221	C622	0.631600	0.713200	0.728800
C6231	C623	0.666100	0.752000	0.727400
C6241	C624	0.703900	0.769000	0.753000
C6251	C625	0.730600	0.805400	0.754500
C6261	C626	0.726600	0.829500	0.728500
C6271	C627	0.701000	0.821500	0.699600
C6281	C628	0.675700	0.779400	0.700000
C6291	C629	0.503800	0.160300	0.692000
C6301	C630	0.512800	0.173400	0.656300
C6311	C631	0.476700	0.193000	0.640800
C6321	C632	0.487900	0.205300	0.609300
C6331	C633	0.544400	0.196400	0.598000
C6341	C634	0.589800	0.174200	0.618700
C6351	C635	0.572100	0.162500	0.649800
C6361	C636	0.437200	0.689700	0.702700
C6371	C637	0.385900	0.714600	0.688300
C6381	C638	0.401500	0.731300	0.656900
C6391	C639	0.358300	0.756100	0.640500
C6401	C640	0.299300	0.753100	0.650500
C6411	C641	0.284000	0.727500	0.676500
C6421	C642	0.324500	0.705900	0.693500
C6431	C643	0.473400	0.585100	0.676600
C6441	C644	0.440700	0.560200	0.649700
C6451	C645	0.466400	0.559400	0.621100
C6461	C646	0.444500	0.535200	0.598700
C6471	C647	0.385200	0.515500	0.604000
C6481	C648	0.362600	0.520900	0.633500
C6491	C649	0.389700	0.541800	0.657900
C6501	C650	0.669700	0.095400	0.765900
C6511	C651	0.724100	0.078100	0.762200
C6521	C652	0.729700	0.055100	0.736100
C6531	C653	0.685300	0.054100	0.711000
C6541	C654	0.633600	0.072100	0.715400
C6551	C655	0.626300	0.686400	0.634500
C6561	C656	0.629000	0.712300	0.603700
C6571	C657	0.580000	0.707700	0.585900
C6581	C658	0.533200	0.688200	0.592200
C6591	C659	0.525100	0.671100	0.624200
C6601	C660	0.843000	0.528200	0.035300
C6611	C661	0.848100	0.486200	0.056500
C6621	C662	0.829900	0.479500	0.085600
C6631	C663	0.839800	0.442800	0.103500
C6641	C664	0.878800	0.412700	0.095400
C6651	C665	0.901800	0.421700	0.071000
C6661	C666	0.886500	0.453700	0.051400
C6671	C667	0.398600	0.849700	0.915400
C6681	C668	0.410200	0.839100	0.883400
C6691	C669	0.381000	0.857700	0.857000
C6701	C670	0.386400	0.854600	0.825200
C6711	C671	0.427000	0.820900	0.820700
C6721	C672	0.470300	0.801700	0.842400
C6731	C673	0.458900	0.816400	0.876500
C6741	C674	0.064700	0.559800	0.008000
C6751	C675	0.068700	0.521600	0.002800
C6761	C676	0.123700	0.496300	0.008600
C6771	C677	0.174100	0.519500	0.021600
C6781	C678	0.160200	0.559900	0.030000
C6791	C679	0.111700	0.587500	0.024200
C6801	C680	0.923600	0.642900	0.943600
C6811	C681	0.947000	0.690500	0.905400
C6821	C682	0.927300	0.650100	0.909100
C6831	C683	0.917500	0.626300	0.882000
C6841	C684	0.925400	0.645600	0.850700
C6851	C685	0.947900	0.686600	0.848600
C6861	C686	0.956900	0.709700	0.875200
C6871	C687	0.324600	0.789400	0.973600
C6881	C688	0.306800	0.742600	0.971500
C6891	C689	0.248000	0.752800	0.968500
C6901	C690	0.203700	0.720900	0.965300
C6911	C691	0.241900	0.684400	0.968600
C6921	C692	0.302900	0.673000	0.971000
C6931	C693	0.345000	0.707500	0.974500
C6941	C694	0.746400	0.593300	0.975100
C6951	C695	0.696000	0.602600	0.953600
C6961	C696	0.696100	0.584900	0.923700
C6971	C697	0.654900	0.595700	0.900800
C6981	C698	0.608000	0.610900	0.914400
C6991	C699	0.599100	0.629700	0.944300
C7001	C700	0.645700	0.623000	0.962100
C7011	C701	0.065800	0.826900	0.797900
C7021	C702	0.417900	0.731300	0.537500
C7031	C703	0.878900	0.199100	0.980800
C7041	C704	0.850800	0.241300	0.979800
C7051	C705	0.887600	0.273100	0.988000
C7061	C706	0.880000	0.316000	0.991100
C7071	C707	0.824700	0.323300	0.979100
C7081	C708	0.775800	0.300500	0.966000
C7091	C709	0.794900	0.258600	0.967700
C7101	C710	0.944600	0.130800	0.918600
C7111	C711	0.969300	0.129800	0.885100
C7121	C712	0.025200	0.142600	0.885800
C7131	C713	0.053800	0.139900	0.854200
C7141	C714	0.023300	0.128200	0.827400
C7151	C715	0.968900	0.109100	0.828000
C7161	C716	0.941100	0.108100	0.860900
C7171	C717	0.276000	0.418300	0.987000
C7181	C718	0.344300	0.486200	0.039700
C7191	C719	0.321700	0.524900	0.058300
C7201	C720	0.302900	0.524200	0.088700
C7211	C721	0.294100	0.559100	0.109400
C7221	C722	0.301200	0.590700	0.097800
C7231	C723	0.327300	0.599500	0.066100
C7241	C724	0.341200	0.563100	0.045900
C7251	C725	0.945700	0.118600	0.056900
C7261	C726	0.952200	0.136200	0.092500
C7271	C727	0.971300	0.175900	0.099800
C7281	C728	0.970200	0.195900	0.127300
C7291	C729	0.946400	0.167600	0.148900
C7301	C730	0.925900	0.127200	0.148900
C7311	C731	0.921000	0.117200	0.117000
C7321	C732	0.028200	0.058200	0.991600
C7331	C733	0.073600	0.028900	0.982400
C7341	C734	0.119200	0.040900	0.962800
C7351	C735	0.162700	0.020800	0.948300
C7361	C736	0.168100	0.982000	0.958600
C7371	C737	0.131600	0.964700	0.980400
C7381	C738	0.089700	0.989300	0.991900
C7391	C739	0.260200	0.397400	0.101600
C7401	C740	0.218400	0.392500	0.123800
C7411	C741	0.176300	0.370600	0.112300
C7421	C742	0.172700	0.348700	0.084300
C7431	C743	0.222200	0.355500	0.064600
C7441	C744	0.120700	0.319200	0.070500
C7451	C745	0.022500	0.304300	0.076800
C7461	C746	0.044200	0.210700	0.010900
C7471	C747	0.090400	0.238000	0.014900
C7481	C748	0.138400	0.232700	0.999100
C7491	C749	0.137700	0.201000	0.978300
C7501	C750	0.087100	0.173800	0.973200
C7511	C751	0.920100	0.964400	0.043800
C7521	C752	0.917400	0.931700	0.065200
C7531	C753	0.889400	0.938500	0.096500
C7541	C754	0.872200	0.980800	0.101600
C7551	C755	0.871900	0.005000	0.077800
C7561	C756	0.836200	0.985700	0.132900
C7571	C757	0.774900	0.030000	0.156900
C7581	C758	0.804800	0.969700	0.179200
C7591	C759	0.734300	0.060500	0.155300
C7601	C760	0.726300	0.095900	0.132500
C7611	C761	0.691300	0.127500	0.133200
C7621	C762	0.654100	0.133800	0.159500
C7631	C763	0.693500	0.073600	0.179800
C7641	C764	0.486800	0.122400	0.190900
C7651	C765	0.453600	0.138300	0.161000
C7661	C766	0.485300	0.140400	0.133000
C7671	C767	0.455100	0.150400	0.102500
C7681	C768	0.401600	0.155700	0.103300
C7691	C769	0.370200	0.153500	0.130800
C7701	C770	0.393600	0.138500	0.158100
C7711	C771	0.541300	0.024800	0.229100
C7721	C772	0.546300	0.976600	0.224500
C7731	C773	0.598400	0.952100	0.220300
C7741	C774	0.604800	0.907800	0.221000
C7751	C775	0.547600	0.891900	0.227700
C7761	C776	0.494200	0.911200	0.234100
C7771	C777	0.490600	0.955200	0.231600
C7781	C778	0.503500	0.063400	0.324600
C7791	C779	0.496400	0.030500	0.350900
C7801	C780	0.543200	0.020200	0.370500
C7811	C781	0.535400	0.990300	0.394400
C7821	C782	0.486100	0.967200	0.400800
C7831	C783	0.444600	0.985200	0.381400
C7841	C784	0.441600	0.011200	0.352500
C7851	C785	0.388700	0.185100	0.322800
C7861	C786	0.400700	0.207800	0.351800
C7871	C787	0.353200	0.223000	0.375000
C7881	C788	0.296800	0.210900	0.364400
C7891	C789	0.284700	0.191700	0.335000
C7901	C790	0.332000	0.173800	0.313800
C7911	C791	0.696400	0.095700	0.280000
C7921	C792	0.752400	0.082700	0.286100
C7931	C793	0.790400	0.057100	0.265200
C7941	C794	0.840600	0.039900	0.270100
C7951	C795	0.862000	0.050200	0.299700
C7961	C796	0.833400	0.080200	0.320400
C7971	C797	0.778200	0.090300	0.314600
C7981	C798	0.625200	0.194600	0.249300
C7991	C799	0.639500	0.238200	0.243500
C8001	C800	0.657300	0.249400	0.215100
C8011	C801	0.676500	0.291400	0.207500
C8021	C802	0.679700	0.318400	0.232400
C8031	C803	0.654800	0.310200	0.262100
C8041	C804	0.641900	0.267100	0.267500
C8051	C805	0.640500	0.188200	0.349500
C8061	C806	0.656400	0.210700	0.377700
C8071	C807	0.608700	0.210000	0.400800
C8081	C808	0.564100	0.183700	0.395700
C8091	C809	0.558400	0.161200	0.367400
C8101	C810	0.514700	0.181500	0.420300
C8111	C811	0.466500	0.203000	0.459100
C8121	C812	0.422300	0.159300	0.431800
C8131	C813	0.466400	0.229700	0.489200
C8141	C814	0.417900	0.232700	0.511300
C8151	C815	0.416900	0.259100	0.539000
C8161	C816	0.462400	0.286900	0.540800
C8171	C817	0.502200	0.262300	0.494900
C8181	C818	0.493700	0.417800	0.502900
C8191	C819	0.320600	0.135500	0.437200
C8201	C820	0.369700	0.135300	0.417700
C8211	C821	0.374900	0.107100	0.391300
C8221	C822	0.329000	0.085000	0.383400
C8231	C823	0.268600	0.095800	0.402500
C8241	C824	0.658900	0.572000	0.226500
C8251	C825	0.712900	0.548400	0.228600
C8261	C826	0.722500	0.530100	0.257800
C8271	C827	0.684200	0.527100	0.281600
C8281	C828	0.629800	0.549500	0.274600
C8291	C829	0.687400	0.497400	0.307400
C8301	C830	0.723200	0.441400	0.328600
C8311	C831	0.673500	0.485400	0.362000
C8321	C832	0.642200	0.469300	0.415500
C8331	C833	0.641600	0.496100	0.386400
C8341	C834	0.604000	0.530400	0.395600
C8351	C835	0.580600	0.539300	0.426700
C8361	C836	0.581600	0.509900	0.448300
C8371	C837	0.813000	0.329800	0.316200
C8381	C838	0.768900	0.328700	0.339400
C8391	C839	0.742600	0.367000	0.344500
C8401	C840	0.756000	0.399800	0.329800
C8411	C841	0.804300	0.397400	0.306400
C8421	C842	0.825200	0.392000	0.210800
C8431	C843	0.766600	0.409800	0.199200
C8441	C844	0.731900	0.432200	0.224200
C8451	C845	0.672700	0.439200	0.209500
C8461	C846	0.639600	0.432500	0.179200
C8471	C847	0.681600	0.413100	0.157800
C8481	C848	0.741100	0.401700	0.168200
C8491	C849	0.040200	0.948300	0.230200
C8501	C850	0.041100	0.994500	0.236600
C8511	C851	0.097000	0.012700	0.228600
C8521	C852	0.108100	0.054700	0.235700
C8531	C853	0.065100	0.083900	0.249400
C8541	C854	0.011900	0.063000	0.258500
C8551	C855	0.998300	0.020400	0.252300
C8561	C856	0.868400	0.286800	0.228800
C8571	C857	0.833900	0.248000	0.227400
C8581	C858	0.796100	0.231000	0.253000
C8591	C859	0.769400	0.194600	0.254500
C8601	C860	0.773400	0.170500	0.228500
C8611	C861	0.799000	0.178500	0.199600
C8621	C862	0.824300	0.220600	0.200000
C8631	C863	0.996200	0.839700	0.192000
C8641	C864	0.987200	0.826600	0.156300
C8651	C865	0.023300	0.807000	0.140800
C8661	C866	0.012100	0.794700	0.109300
C8671	C867	0.955600	0.803600	0.098000
C8681	C868	0.910200	0.825800	0.118700
C8691	C869	0.927900	0.837500	0.149800
C8701	C870	0.062800	0.310300	0.202700
C8711	C871	0.114100	0.285400	0.188300
C8721	C872	0.098500	0.268700	0.156900
C8731	C873	0.141700	0.243900	0.140500
C8741	C874	0.200700	0.246900	0.150500
C8751	C875	0.216000	0.272500	0.176500
C8761	C876	0.175500	0.294100	0.193500
C8771	C877	0.026600	0.414900	0.176600
C8781	C878	0.059300	0.439800	0.149700
C8791	C879	0.033600	0.440600	0.121100
C8801	C880	0.055500	0.464800	0.098700
C8811	C881	0.114800	0.484500	0.104000
C8821	C882	0.137400	0.479100	0.133500
C8831	C883	0.110300	0.458200	0.157900
C8841	C884	0.830300	0.904600	0.265900
C8851	C885	0.775900	0.921900	0.262200
C8861	C886	0.770300	0.944900	0.236100
C8871	C887	0.814700	0.945900	0.211000
C8881	C888	0.866400	0.927900	0.215400
C8891	C889	0.873700	0.313600	0.134500
C8901	C890	0.871000	0.287700	0.103700
C8911	C891	0.920000	0.292300	0.085900
C8921	C892	0.966800	0.311800	0.092200
C8931	C893	0.974900	0.328900	0.124200
C8941	C894	0.657000	0.471800	0.535300
C8951	C895	0.651900	0.513800	0.556500
C8961	C896	0.670100	0.520500	0.585600
C8971	C897	0.660200	0.557200	0.603500
C8981	C898	0.621200	0.587300	0.595400
C8991	C899	0.598200	0.578300	0.571000
C9001	C900	0.613500	0.546300	0.551400
C9011	C901	0.101400	0.150300	0.415400
C9021	C902	0.089800	0.160900	0.383400
C9031	C903	0.119000	0.142300	0.357000
C9041	C904	0.113600	0.145400	0.325200
C9051	C905	0.073000	0.179100	0.320700
C9061	C906	0.029700	0.198300	0.342400
C9071	C907	0.041100	0.183600	0.376500
C9081	C908	0.435300	0.440200	0.508000
C9091	C909	0.431300	0.478400	0.502800
C9101	C910	0.376300	0.503700	0.508600
C9111	C911	0.325900	0.480500	0.521600
C9121	C912	0.339800	0.440100	0.530000
C9131	C913	0.388300	0.412500	0.524200
C9141	C914	0.576400	0.357100	0.443600
C9151	C915	0.553000	0.309500	0.405400
C9161	C916	0.572700	0.349900	0.409100
C9171	C917	0.582500	0.373700	0.382000
C9181	C918	0.574600	0.354400	0.350700
C9191	C919	0.552100	0.313400	0.348600
C9201	C920	0.543100	0.290300	0.375200
C9211	C921	0.175400	0.210600	0.473600
C9221	C922	0.193200	0.257400	0.471500
C9231	C923	0.252000	0.247200	0.468500
C9241	C924	0.296300	0.279100	0.465300
C9251	C925	0.258100	0.315600	0.468600
C9261	C926	0.197100	0.327000	0.471000
C9271	C927	0.155000	0.292500	0.474500
C9281	C928	0.753600	0.406700	0.475100
C9291	C929	0.804000	0.397400	0.453600
C9301	C930	0.803900	0.415100	0.423700
C9311	C931	0.845100	0.404300	0.400800
C9321	C932	0.892000	0.389100	0.414400
C9331	C933	0.900900	0.370300	0.444300
C9341	C934	0.854300	0.377000	0.462100
C9351	C935	0.434200	0.173100	0.297900
C9361	C936	0.082100	0.268700	0.037500
N11	N1	0.535600	0.322100	0.011600
N21	N2	0.765600	0.120300	0.928500
N31	N3	0.396400	0.497600	0.951100
N41	N4	0.630800	0.210200	0.951400
N51	N5	0.571400	0.174900	0.913100
N61	N6	0.527700	0.226800	0.946400
N71	N7	0.300000	0.476200	0.869100
N81	N8	0.342900	0.538300	0.844300
N91	N9	0.269800	0.497900	0.818800
N101	N10	0.153900	0.394000	0.816100
N111	N11	0.100500	0.334800	0.656500
N121	N12	0.117200	0.931700	0.753300
N131	N13	0.016900	0.294200	0.556400
N141	N14	0.973000	0.346200	0.589400
N151	N15	0.916800	0.317600	0.543700
N161	N16	0.162200	0.988100	0.666400
N171	N17	0.192600	0.049900	0.643200
N181	N18	0.225000	0.032200	0.693800
N191	N19	0.111800	0.023800	0.555300
N201	N20	0.334800	0.137400	0.698000
N211	N21	0.765600	0.384800	0.570200
N221	N22	0.424400	0.169400	0.856400
N231	N23	0.371000	0.599300	0.756900
N241	N24	0.007800	0.205100	0.486300
N251	N25	0.964400	0.677900	0.511600
N261	N26	0.734400	0.879700	0.428500
N271	N27	0.103600	0.502400	0.451100
N281	N28	0.869200	0.789800	0.451400
N291	N29	0.928600	0.825100	0.413100
N301	N30	0.972300	0.773200	0.446400
N311	N31	0.200000	0.523800	0.369100
N321	N32	0.157100	0.461700	0.344300
N331	N33	0.230200	0.502100	0.318800
N341	N34	0.346100	0.606000	0.316100
N351	N35	0.399500	0.665200	0.156500
N361	N36	0.382800	0.068300	0.253300
N371	N37	0.483100	0.705800	0.056400
N381	N38	0.527000	0.653800	0.089400
N391	N39	0.583200	0.682400	0.043700
N401	N40	0.337800	0.011900	0.166400
N411	N41	0.307400	0.950100	0.143200
N421	N42	0.275000	0.967800	0.193800
N431	N43	0.388200	0.976200	0.055300
N441	N44	0.165200	0.862600	0.198000
N451	N45	0.734400	0.615200	0.070200
N461	N46	0.075600	0.830600	0.356400
N471	N47	0.129000	0.400700	0.256900
N481	N48	0.492200	0.794900	0.986300
N491	N49	0.464400	0.822100	0.488400
N501	N50	0.234400	0.620300	0.571500
N511	N51	0.603600	0.997600	0.548900
N521	N52	0.369200	0.710200	0.548600
N531	N53	0.428600	0.674900	0.586900
N541	N54	0.472300	0.726800	0.553600
N551	N55	0.700000	0.976200	0.630900
N561	N56	0.657100	0.038300	0.655700
N571	N57	0.730200	0.997900	0.681200
N581	N58	0.846100	0.894000	0.683900
N591	N59	0.899500	0.834800	0.843500
N601	N60	0.882800	0.431700	0.746700
N611	N61	0.983100	0.794200	0.943600
N621	N62	0.027000	0.846200	0.910600
N631	N63	0.083200	0.817600	0.956300
N641	N64	0.837800	0.488100	0.833600
N651	N65	0.807400	0.549900	0.856800
N661	N66	0.775000	0.532200	0.806200
N671	N67	0.888200	0.523800	0.944700
N681	N68	0.665200	0.637400	0.802000
N691	N69	0.234400	0.884800	0.929800
N701	N70	0.575600	0.669400	0.643600
N711	N71	0.629000	0.099300	0.743100
N721	N72	0.992200	0.705100	0.013700
N731	N73	0.035600	0.177900	0.988400
N741	N74	0.265600	0.379700	0.071500
N751	N75	0.896400	0.002400	0.048900
N761	N76	0.130800	0.289800	0.048600
N771	N77	0.071400	0.325100	0.086900
N781	N78	0.027700	0.273200	0.053600
N791	N79	0.800000	0.023800	0.130900
N801	N80	0.842900	0.961700	0.155700
N811	N81	0.769800	0.002100	0.181200
N821	N82	0.653900	0.106000	0.183900
N831	N83	0.600500	0.165200	0.343500
N841	N84	0.617200	0.568300	0.246700
N851	N85	0.516900	0.205800	0.443600
N861	N86	0.473000	0.153800	0.410600
N871	N87	0.416800	0.182400	0.456300
N881	N88	0.662200	0.511900	0.333600
N891	N89	0.692600	0.450100	0.356800
N901	N90	0.725000	0.467800	0.306200
N911	N91	0.611800	0.476200	0.444700
N921	N92	0.834800	0.362600	0.302000
N931	N93	0.265600	0.115200	0.429800
N941	N94	0.924400	0.330600	0.143600
N951	N95	0.871000	0.900700	0.243100
N961	N96	0.507800	0.294900	0.513700
O11	O1	0.422600	0.309500	0.009200
O21	O2	0.400600	0.400400	0.012100
O31	O3	0.332900	0.326100	0.034900
O41	O4	0.048000	0.386000	0.738580
O51	O5	0.473700	0.357100	0.059100
O61	O6	0.125900	0.116200	0.490100
O71	O7	0.389600	0.382100	0.078300
O81	O8	0.457900	0.137600	0.767700
O91	O9	0.774300	0.107600	0.992800
O101	O10	0.813800	0.057400	0.026300
O111	O11	0.826500	0.050500	0.948300
O121	O12	0.876400	0.008700	0.983900
O131	O13	0.417600	0.413700	0.944500
O141	O14	0.470000	0.359100	0.963600
O151	O15	0.487200	0.464300	0.992600
O161	O16	0.529300	0.405400	0.013000
O171	O17	0.171500	0.407600	0.751200
O181	O18	0.159800	0.383200	0.699600
O191	O19	0.123600	0.329200	0.772900
O201	O20	0.107100	0.308800	0.720300
O211	O21	0.049600	0.411500	0.675900
O221	O22	0.965600	0.432700	0.698000
O231	O23	0.994200	0.333300	0.694300
O241	O24	0.924000	0.357300	0.726100
O251	O25	0.992700	0.460200	0.761600
O261	O26	0.088600	0.454900	0.781500
O271	O27	0.948300	0.382000	0.787700
O281	O28	0.042200	0.373500	0.810200
O291	O29	0.187700	0.057000	0.450700
O301	O30	0.136500	0.022800	0.491500
O311	O31	0.255800	0.112900	0.497500
O321	O32	0.207300	0.074100	0.534500
O331	O33	0.035200	0.060200	0.512400
O341	O34	0.000000	0.116400	0.486300
O351	O35	0.100800	0.107800	0.557300
O361	O36	0.059800	0.163800	0.533400
O371	O37	0.623300	0.294000	0.513600
O381	O38	0.706300	0.320400	0.535400
O391	O39	0.564300	0.340800	0.564200
O401	O40	0.648800	0.375600	0.579700
O411	O41	0.340200	0.109200	0.759500
O421	O42	0.359800	0.121500	0.812400
O431	O43	0.366400	0.192700	0.747000
O441	O44	0.393400	0.204100	0.795000
O451	O45	0.552600	0.663100	0.799000
O461	O46	0.461200	0.645000	0.790500
O471	O47	0.581300	0.577400	0.781200
O481	O48	0.488600	0.563500	0.763100
O491	O49	0.555700	0.092400	0.796800
O501	O50	0.479100	0.105900	0.829300
O511	O51	0.578600	0.169400	0.773600
O521	O52	0.515900	0.185700	0.813900
O531	O53	0.077400	0.690500	0.509200
O541	O54	0.099400	0.599600	0.512100
O551	O55	0.167100	0.673900	0.534900
O561	O56	0.452000	0.614000	0.238580
O571	O57	0.026300	0.642900	0.559100
O581	O58	0.374100	0.883800	0.990100
O591	O59	0.110400	0.617900	0.578300
O601	O60	0.042100	0.862400	0.267700
O611	O61	0.725700	0.892400	0.492800
O621	O62	0.686200	0.942600	0.526300
O631	O63	0.673500	0.949500	0.448300
O641	O64	0.623600	0.991300	0.483900
O651	O65	0.082400	0.586300	0.444500
O661	O66	0.030000	0.640900	0.463600
O671	O67	0.012800	0.535700	0.492600
O681	O68	0.970700	0.594600	0.513000
O691	O69	0.328500	0.592400	0.251200
O701	O70	0.340200	0.616800	0.199600
O711	O71	0.376400	0.670800	0.272900
O721	O72	0.392900	0.691200	0.220300
O731	O73	0.450400	0.588500	0.175900
O741	O74	0.534400	0.567300	0.198000
O751	O75	0.505800	0.666700	0.194300
O761	O76	0.576000	0.642700	0.226100
O771	O77	0.507300	0.539800	0.261600
O781	O78	0.411400	0.545100	0.281500
O791	O79	0.551700	0.618000	0.287700
O801	O80	0.457800	0.626500	0.310200
O811	O81	0.312300	0.943000	0.950700
O821	O82	0.363500	0.977200	0.991500
O831	O83	0.244200	0.887100	0.997500
O841	O84	0.292700	0.925900	0.034500
O851	O85	0.464800	0.939800	0.012400
O861	O86	0.500000	0.883600	0.986300
O871	O87	0.399200	0.892200	0.057300
O881	O88	0.440200	0.836200	0.033400
O891	O89	0.876700	0.706000	0.013600
O901	O90	0.793700	0.679600	0.035400
O911	O91	0.935700	0.659200	0.064200
O921	O92	0.851200	0.624400	0.079700
O931	O93	0.159800	0.890800	0.259500
O941	O94	0.140200	0.878500	0.312400
O951	O95	0.133600	0.807300	0.247000
O961	O96	0.106600	0.795900	0.295000
O971	O97	0.947400	0.336900	0.299000
O981	O98	0.038800	0.355000	0.290500
O991	O99	0.918700	0.422600	0.281200
O1001	O100	0.011400	0.436500	0.263100
O1011	O101	0.944300	0.907600	0.296800
O1021	O102	0.020900	0.894100	0.329300
O1031	O103	0.921400	0.830600	0.273600
O1041	O104	0.984100	0.814300	0.313900
O1051	O105	0.577400	0.809500	0.490800
O1061	O106	0.599400	0.900400	0.487900
O1071	O107	0.667100	0.826100	0.465100
O1081	O108	0.952000	0.886000	0.761420
O1091	O109	0.526300	0.857100	0.440900
O1101	O110	0.874100	0.616200	0.009900
O1111	O111	0.610400	0.882100	0.421700
O1121	O112	0.542100	0.637600	0.732300
O1131	O113	0.225700	0.607600	0.507200
O1141	O114	0.186200	0.557400	0.473700
O1151	O115	0.173500	0.550500	0.551700
O1161	O116	0.123600	0.508700	0.516100
O1171	O117	0.582400	0.913700	0.555500
O1181	O118	0.530000	0.859100	0.536400
O1191	O119	0.512800	0.964300	0.507400
O1201	O120	0.470700	0.905400	0.487000
O1211	O121	0.828500	0.907600	0.748800
O1221	O122	0.840200	0.883200	0.800400
O1231	O123	0.876400	0.829200	0.727100
O1241	O124	0.892900	0.808800	0.779700
O1251	O125	0.950400	0.911500	0.824100
O1261	O126	0.034400	0.932700	0.802000
O1271	O127	0.005800	0.833300	0.805700
O1281	O128	0.076000	0.857300	0.773900
O1291	O129	0.007300	0.960200	0.738400
O1301	O130	0.911400	0.954900	0.718500
O1311	O131	0.051700	0.882000	0.712300
O1321	O132	0.957800	0.873500	0.689800
O1331	O133	0.812300	0.557000	0.049300
O1341	O134	0.863500	0.522800	0.008500
O1351	O135	0.744200	0.612900	0.002500
O1361	O136	0.792700	0.574100	0.965500
O1371	O137	0.964800	0.560200	0.987600
O1381	O138	0.000000	0.616400	0.013700
O1391	O139	0.899200	0.607800	0.942700
O1401	O140	0.940200	0.663800	0.966600
O1411	O141	0.376700	0.794000	0.986400
O1421	O142	0.293700	0.820400	0.964600
O1431	O143	0.435700	0.840800	0.935800
O1441	O144	0.351200	0.875600	0.920300
O1451	O145	0.659800	0.609200	0.740500
O1461	O146	0.640200	0.621500	0.687600
O1471	O147	0.633600	0.692700	0.753000
O1481	O148	0.606600	0.704100	0.705000
O1491	O149	0.447400	0.163100	0.701000
O1501	O150	0.538800	0.145000	0.709500
O1511	O151	0.418700	0.077400	0.718800
O1521	O152	0.511400	0.063500	0.736900
O1531	O153	0.444300	0.592400	0.703200
O1541	O154	0.520900	0.605900	0.670700
O1551	O155	0.421400	0.669400	0.726400
O1561	O156	0.484100	0.685700	0.686100
O1571	O157	0.922600	0.190500	0.990800
O1581	O158	0.900600	0.099600	0.987900
O1591	O159	0.832900	0.173900	0.965100
O1601	O160	0.548000	0.114000	0.261420
O1611	O161	0.973700	0.142900	0.940900
O1621	O162	0.625900	0.383800	0.509900
O1631	O163	0.889600	0.117900	0.921700
O1641	O164	0.957900	0.362400	0.232300
O1651	O165	0.274300	0.392400	0.007200
O1661	O166	0.313800	0.442600	0.973700
O1671	O167	0.326500	0.449500	0.051700
O1681	O168	0.376400	0.491300	0.016100
O1691	O169	0.917600	0.086300	0.055500
O1701	O170	0.970000	0.140900	0.036400
O1711	O171	0.987200	0.035700	0.007400
O1721	O172	0.029300	0.094600	0.987000
O1731	O173	0.671500	0.092400	0.248800
O1741	O174	0.659800	0.116800	0.300400
O1751	O175	0.623600	0.170800	0.227100
O1761	O176	0.607100	0.191200	0.279700
O1771	O177	0.549600	0.088500	0.324100
O1781	O178	0.465600	0.067300	0.302000
O1791	O179	0.494200	0.166700	0.305700
O1801	O180	0.424000	0.142700	0.273900
O1811	O181	0.492700	0.039800	0.238400
O1821	O182	0.588600	0.045100	0.218500
O1831	O183	0.448300	0.118000	0.212300
O1841	O184	0.542200	0.126500	0.189800
O1851	O185	0.687700	0.443000	0.549300
O1861	O186	0.636500	0.477200	0.508500
O1871	O187	0.755800	0.387100	0.502500
O1881	O188	0.707300	0.425900	0.465500
O1891	O189	0.535200	0.439800	0.487600
O1901	O190	0.500000	0.383600	0.513700
O1911	O191	0.600800	0.392200	0.442700
O1921	O192	0.559800	0.336200	0.466600
O1931	O193	0.123300	0.206000	0.486400
O1941	O194	0.206300	0.179600	0.464600
O1951	O195	0.064300	0.159200	0.435800
O1961	O196	0.148800	0.124400	0.420300
O1971	O197	0.840200	0.390800	0.240500
O1981	O198	0.859800	0.378500	0.187600
O1991	O199	0.866400	0.307300	0.253000
O2001	O200	0.893400	0.295900	0.205000
O2011	O201	0.052600	0.836900	0.201000
O2021	O202	0.961200	0.855000	0.209500
O2031	O203	0.081300	0.922600	0.218800
O2041	O204	0.988600	0.936500	0.236900
O2051	O205	0.055700	0.407600	0.203200
O2061	O206	0.979100	0.394100	0.170700
O2071	O207	0.078600	0.330600	0.226400
O2081	O208	0.015900	0.314300	0.186100
