data_YEKXUJ_clean_PM
_symmetry_space_group_name_H-M	'P1'
_cell_length_a	16.630700
_cell_length_b	16.630700
_cell_length_c	16.307100
_cell_angle_alpha	90.000000
_cell_angle_beta	90.000000
_cell_angle_gamma	90.000000
_symmetry_Int_Tables_number 1

loop_
_symmetry_equiv_pos_as_xyz
'x,y,z'

loop_
_atom_site_label
_atom_site_type_symbol
_atom_site_fract_x
_atom_site_fract_y
_atom_site_fract_z
C11	C1	0.923400	0.428200	0.637690
C21	C2	0.879300	0.390200	0.567390
C31	C3	0.901000	0.316100	0.536900
H11	H1	0.944200	0.289000	0.560300
C41	C4	0.859900	0.281100	0.472300
H21	H2	0.874900	0.230900	0.452500
C51	C5	0.795400	0.322800	0.437200
C61	C6	0.774200	0.396400	0.468600
H31	H3	0.731100	0.424100	0.445700
C71	C7	0.814600	0.429000	0.531800
H41	H4	0.798600	0.478700	0.552100
H51	H5	0.715200	0.249900	0.401400
O11	O1	0.895220	0.493040	0.663600
O21	O2	0.984290	0.393780	0.666030
C81	C8	0.423400	0.928200	0.137690
C91	C9	0.379300	0.890200	0.067390
C101	C10	0.401000	0.816100	0.036900
H61	H6	0.444200	0.789000	0.060300
C111	C11	0.359900	0.781100	0.972300
H71	H7	0.374900	0.730900	0.952500
C121	C12	0.295400	0.822800	0.937200
C131	C13	0.274200	0.896400	0.968600
H81	H8	0.231100	0.924100	0.945700
C141	C14	0.314600	0.929000	0.031800
H91	H9	0.298600	0.978700	0.052100
H101	H10	0.215200	0.749900	0.901400
O31	O3	0.395220	0.993040	0.163600
O41	O4	0.484290	0.893780	0.166030
C151	C15	0.576600	0.071800	0.137690
C161	C16	0.620700	0.109800	0.067390
C171	C17	0.599000	0.183900	0.036900
H111	H11	0.555800	0.211000	0.060300
C181	C18	0.640100	0.218900	0.972300
H121	H12	0.625100	0.269100	0.952500
C191	C19	0.704600	0.177200	0.937200
C201	C20	0.725800	0.103600	0.968600
H131	H13	0.768900	0.075900	0.945700
C211	C21	0.685400	0.071000	0.031800
H141	H14	0.701400	0.021300	0.052100
H151	H15	0.784800	0.250100	0.901400
O51	O5	0.604780	0.006960	0.163600
O61	O6	0.515710	0.106220	0.166030
C221	C22	0.076600	0.571800	0.637690
C231	C23	0.120700	0.609800	0.567390
C241	C24	0.099000	0.683900	0.536900
H161	H16	0.055800	0.711000	0.560300
C251	C25	0.140100	0.718900	0.472300
H171	H17	0.125100	0.769100	0.452500
C261	C26	0.204600	0.677200	0.437200
C271	C27	0.225800	0.603600	0.468600
H181	H18	0.268900	0.575900	0.445700
C281	C28	0.185400	0.571000	0.531800
H191	H19	0.201400	0.521300	0.552100
H201	H20	0.284800	0.750100	0.401400
O71	O7	0.104780	0.506960	0.663600
O81	O8	0.015710	0.606220	0.666030
C291	C29	0.571800	0.423400	0.887690
C301	C30	0.609800	0.379300	0.817390
C311	C31	0.683900	0.401000	0.786900
H211	H21	0.711000	0.444200	0.810300
C321	C32	0.718900	0.359900	0.722300
H221	H22	0.769100	0.374900	0.702500
C331	C33	0.677200	0.295400	0.687200
C341	C34	0.603600	0.274200	0.718600
H231	H23	0.575900	0.231100	0.695700
C351	C35	0.571000	0.314600	0.781800
H241	H24	0.521300	0.298600	0.802100
H251	H25	0.750100	0.215200	0.651400
O91	O9	0.506960	0.395220	0.913600
O101	O10	0.606220	0.484290	0.916030
C361	C36	0.071800	0.923400	0.387690
C371	C37	0.109800	0.879300	0.317390
C381	C38	0.183900	0.901000	0.286900
H261	H26	0.211000	0.944200	0.310300
C391	C39	0.218900	0.859900	0.222300
H271	H27	0.269100	0.874900	0.202500
C401	C40	0.177200	0.795400	0.187200
C411	C41	0.103600	0.774200	0.218600
H281	H28	0.075900	0.731100	0.195700
C421	C42	0.071000	0.814600	0.281800
H291	H29	0.021300	0.798600	0.302100
H301	H30	0.250100	0.715200	0.151400
O111	O11	0.006960	0.895220	0.413600
O121	O12	0.106220	0.984290	0.416030
C431	C43	0.928200	0.076600	0.387690
C441	C44	0.890200	0.120700	0.317390
C451	C45	0.816100	0.099000	0.286900
H311	H31	0.789000	0.055800	0.310300
C461	C46	0.781100	0.140100	0.222300
H321	H32	0.730900	0.125100	0.202500
C471	C47	0.822800	0.204600	0.187200
C481	C48	0.896400	0.225800	0.218600
H331	H33	0.924100	0.268900	0.195700
C491	C49	0.929000	0.185400	0.281800
H341	H34	0.978700	0.201400	0.302100
H351	H35	0.749900	0.284800	0.151400
O131	O13	0.993040	0.104780	0.413600
O141	O14	0.893780	0.015710	0.416030
C501	C50	0.428200	0.576600	0.887690
C511	C51	0.390200	0.620700	0.817390
C521	C52	0.316100	0.599000	0.786900
H361	H36	0.289000	0.555800	0.810300
C531	C53	0.281100	0.640100	0.722300
H371	H37	0.230900	0.625100	0.702500
C541	C54	0.322800	0.704600	0.687200
C551	C55	0.396400	0.725800	0.718600
H381	H38	0.424100	0.768900	0.695700
C561	C56	0.429000	0.685400	0.781800
H391	H39	0.478700	0.701400	0.802100
H401	H40	0.249900	0.784800	0.651400
O151	O15	0.493040	0.604780	0.913600
O161	O16	0.393780	0.515710	0.916030
C571	C57	0.576600	0.428200	0.112310
C581	C58	0.620700	0.390200	0.182610
C591	C59	0.599000	0.316100	0.213100
H411	H41	0.555800	0.289000	0.189700
C601	C60	0.640100	0.281100	0.277700
H421	H42	0.625100	0.230900	0.297500
C611	C61	0.704600	0.322800	0.312800
C621	C62	0.725800	0.396400	0.281400
H431	H43	0.768900	0.424100	0.304300
C631	C63	0.685400	0.429000	0.218200
H441	H44	0.701400	0.478700	0.197900
H451	H45	0.784800	0.249900	0.348600
O171	O17	0.604780	0.493040	0.086400
O181	O18	0.515710	0.393780	0.083970
C641	C64	0.076600	0.928200	0.612310
C651	C65	0.120700	0.890200	0.682610
C661	C66	0.099000	0.816100	0.713100
H461	H46	0.055800	0.789000	0.689700
C671	C67	0.140100	0.781100	0.777700
H471	H47	0.125100	0.730900	0.797500
C681	C68	0.204600	0.822800	0.812800
C691	C69	0.225800	0.896400	0.781400
H481	H48	0.268900	0.924100	0.804300
C701	C70	0.185400	0.929000	0.718200
H491	H49	0.201400	0.978700	0.697900
H501	H50	0.284800	0.749900	0.848600
O191	O19	0.104780	0.993040	0.586400
O201	O20	0.015710	0.893780	0.583970
C711	C71	0.923400	0.071800	0.612310
C721	C72	0.879300	0.109800	0.682610
C731	C73	0.901000	0.183900	0.713100
H511	H51	0.944200	0.211000	0.689700
C741	C74	0.859900	0.218900	0.777700
H521	H52	0.874900	0.269100	0.797500
C751	C75	0.795400	0.177200	0.812800
C761	C76	0.774200	0.103600	0.781400
H531	H53	0.731100	0.075900	0.804300
C771	C77	0.814600	0.071000	0.718200
H541	H54	0.798600	0.021300	0.697900
H551	H55	0.715200	0.250100	0.848600
O211	O21	0.895220	0.006960	0.586400
O221	O22	0.984290	0.106220	0.583970
C781	C78	0.423400	0.571800	0.112310
C791	C79	0.379300	0.609800	0.182610
C801	C80	0.401000	0.683900	0.213100
H561	H56	0.444200	0.711000	0.189700
C811	C81	0.359900	0.718900	0.277700
H571	H57	0.374900	0.769100	0.297500
C821	C82	0.295400	0.677200	0.312800
C831	C83	0.274200	0.603600	0.281400
H581	H58	0.231100	0.575900	0.304300
C841	C84	0.314600	0.571000	0.218200
H591	H59	0.298600	0.521300	0.197900
H601	H60	0.215200	0.750100	0.348600
O231	O23	0.395220	0.506960	0.086400
O241	O24	0.484290	0.606220	0.083970
C851	C85	0.928200	0.423400	0.862310
C861	C86	0.890200	0.379300	0.932610
C871	C87	0.816100	0.401000	0.963100
H611	H61	0.789000	0.444200	0.939700
C881	C88	0.781100	0.359900	0.027700
H621	H62	0.730900	0.374900	0.047500
C891	C89	0.822800	0.295400	0.062800
C901	C90	0.896400	0.274200	0.031400
H631	H63	0.924100	0.231100	0.054300
C911	C91	0.929000	0.314600	0.968200
H641	H64	0.978700	0.298600	0.947900
H651	H65	0.749900	0.215200	0.098600
O251	O25	0.993040	0.395220	0.836400
O261	O26	0.893780	0.484290	0.833970
C921	C92	0.428200	0.923400	0.362310
C931	C93	0.390200	0.879300	0.432610
C941	C94	0.316100	0.901000	0.463100
H661	H66	0.289000	0.944200	0.439700
C951	C95	0.281100	0.859900	0.527700
H671	H67	0.230900	0.874900	0.547500
C961	C96	0.322800	0.795400	0.562800
C971	C97	0.396400	0.774200	0.531400
H681	H68	0.424100	0.731100	0.554300
C981	C98	0.429000	0.814600	0.468200
H691	H69	0.478700	0.798600	0.447900
H701	H70	0.249900	0.715200	0.598600
O271	O27	0.493040	0.895220	0.336400
O281	O28	0.393780	0.984290	0.333970
C991	C99	0.571800	0.076600	0.362310
C1001	C100	0.609800	0.120700	0.432610
C1011	C101	0.683900	0.099000	0.463100
H711	H71	0.711000	0.055800	0.439700
C1021	C102	0.718900	0.140100	0.527700
H721	H72	0.769100	0.125100	0.547500
C1031	C103	0.677200	0.204600	0.562800
C1041	C104	0.603600	0.225800	0.531400
H731	H73	0.575900	0.268900	0.554300
C1051	C105	0.571000	0.185400	0.468200
H741	H74	0.521300	0.201400	0.447900
H751	H75	0.750100	0.284800	0.598600
O291	O29	0.506960	0.104780	0.336400
O301	O30	0.606220	0.015710	0.333970
C1061	C106	0.071800	0.576600	0.862310
C1071	C107	0.109800	0.620700	0.932610
C1081	C108	0.183900	0.599000	0.963100
H761	H76	0.211000	0.555800	0.939700
C1091	C109	0.218900	0.640100	0.027700
H771	H77	0.269100	0.625100	0.047500
C1101	C110	0.177200	0.704600	0.062800
C1111	C111	0.103600	0.725800	0.031400
H781	H78	0.075900	0.768900	0.054300
C1121	C112	0.071000	0.685400	0.968200
H791	H79	0.021300	0.701400	0.947900
H801	H80	0.250100	0.784800	0.098600
O311	O31	0.006960	0.604780	0.836400
O321	O32	0.106220	0.515710	0.833970
Cu11	Cu1	0.944130	0.555870	0.750000
Cu21	Cu2	0.555870	0.944130	0.250000
Cu31	Cu3	0.444130	0.444130	0.000000
Cu41	Cu4	0.055870	0.055870	0.500000
Cu51	Cu5	0.555870	0.555870	0.000000
Cu61	Cu6	0.944130	0.944130	0.500000
Cu71	Cu7	0.055870	0.444130	0.750000
Cu81	Cu8	0.444130	0.055870	0.250000
N11	N1	0.750000	0.282400	0.375000
N21	N2	0.250000	0.782400	0.875000
N31	N3	0.750000	0.217600	0.875000
N41	N4	0.250000	0.717600	0.375000
N51	N5	0.717600	0.250000	0.625000
N61	N6	0.217600	0.750000	0.125000
N71	N7	0.782400	0.250000	0.125000
N81	N8	0.282400	0.750000	0.625000
