data_YEKXOD_clean_PM
_symmetry_space_group_name_H-M	'P1'
_cell_length_a	16.672700
_cell_length_b	17.591600
_cell_length_c	18.734000
_cell_angle_alpha	77.826700
_cell_angle_beta	63.577700
_cell_angle_gamma	61.713500
_symmetry_Int_Tables_number 1

loop_
_symmetry_equiv_pos_as_xyz
'x,y,z'

loop_
_atom_site_label
_atom_site_type_symbol
_atom_site_fract_x
_atom_site_fract_y
_atom_site_fract_z
Cu11	Cu1	0.000800	0.936880	0.052200
Cu21	Cu2	0.947000	0.563120	0.052200
Cu31	Cu3	0.562320	0.936880	0.447800
Cu41	Cu4	0.989880	0.563120	0.447800
Cu51	Cu5	0.999200	0.063120	0.947800
Cu61	Cu6	0.053000	0.436880	0.947800
Cu71	Cu7	0.437680	0.063120	0.552200
Cu81	Cu8	0.010120	0.436880	0.552200
H11	H1	0.091100	0.003400	0.205400
H21	H2	0.140800	0.058000	0.270200
H31	H3	0.103100	0.266000	0.128000
H41	H4	0.057100	0.210000	0.061000
H51	H5	0.320200	0.954000	0.786400
H61	H6	0.490700	0.882000	0.731400
H71	H7	0.482500	0.725800	0.921800
H81	H8	0.312200	0.794600	0.974800
H91	H9	0.703500	0.496600	0.205400
H101	H10	0.589000	0.442000	0.270200
H111	H11	0.768900	0.234000	0.128000
H121	H12	0.881900	0.290000	0.061000
H131	H13	0.893400	0.546000	0.786400
H141	H14	0.777900	0.618000	0.731400
H151	H15	0.595700	0.774200	0.921800
H161	H16	0.713000	0.705400	0.974800
H171	H17	0.405500	0.003400	0.294600
H181	H18	0.301200	0.058000	0.229800
H191	H19	0.130900	0.266000	0.372000
H201	H20	0.232900	0.210000	0.439000
H211	H21	0.225800	0.954000	0.713600
H221	H22	0.127300	0.882000	0.768600
H231	H23	0.291700	0.725800	0.578200
H241	H24	0.393200	0.794600	0.525200
H251	H25	0.299900	0.496600	0.294600
H261	H26	0.469000	0.442000	0.229800
H271	H27	0.497100	0.234000	0.372000
H281	H28	0.328100	0.290000	0.439000
H291	H29	0.060600	0.546000	0.713600
H301	H30	0.104100	0.618000	0.768600
H311	H31	0.130100	0.774200	0.578200
H321	H32	0.081600	0.705400	0.525200
H331	H33	0.908900	0.996600	0.794600
H341	H34	0.859200	0.942000	0.729800
H351	H35	0.896900	0.734000	0.872000
H361	H36	0.942900	0.790000	0.939000
H371	H37	0.679800	0.046000	0.213600
H381	H38	0.509300	0.118000	0.268600
H391	H39	0.517500	0.274200	0.078200
H401	H40	0.687800	0.205400	0.025200
H411	H41	0.296500	0.503400	0.794600
H421	H42	0.411000	0.558000	0.729800
H431	H43	0.231100	0.766000	0.872000
H441	H44	0.118100	0.710000	0.939000
H451	H45	0.106600	0.454000	0.213600
H461	H46	0.222100	0.382000	0.268600
H471	H47	0.404300	0.225800	0.078200
H481	H48	0.287000	0.294600	0.025200
H491	H49	0.594500	0.996600	0.705400
H501	H50	0.698800	0.942000	0.770200
H511	H51	0.869100	0.734000	0.628000
H521	H52	0.767100	0.790000	0.561000
H531	H53	0.774200	0.046000	0.286400
H541	H54	0.872700	0.118000	0.231400
H551	H55	0.708300	0.274200	0.421800
H561	H56	0.606800	0.205400	0.474800
H571	H57	0.700100	0.503400	0.705400
H581	H58	0.531000	0.558000	0.770200
H591	H59	0.502900	0.766000	0.628000
H601	H60	0.671900	0.710000	0.561000
H611	H61	0.939400	0.454000	0.286400
H621	H62	0.895900	0.382000	0.231400
H631	H63	0.869900	0.225800	0.421800
H641	H64	0.918400	0.294600	0.474800
H651	H65	0.118100	0.263800	0.250000
H661	H66	0.631900	0.236200	0.250000
H671	H67	0.881900	0.736200	0.750000
H681	H68	0.368100	0.763800	0.750000
H691	H69	0.634300	0.750000	0.731400
H701	H70	0.115700	0.750000	0.768600
H711	H71	0.365700	0.250000	0.268600
H721	H72	0.884300	0.250000	0.231400
C11	C1	0.069960	0.099840	0.125040
C21	C2	0.094360	0.056040	0.189240
C31	C3	0.122770	0.089120	0.228740
C41	C4	0.125190	0.169140	0.207280
C51	C5	0.100800	0.213060	0.143540
C61	C6	0.073460	0.179460	0.103220
C71	C7	0.039090	0.063620	0.082400
C81	C8	0.186580	0.926040	0.922800
C91	C9	0.297960	0.881660	0.886620
C101	C10	0.352760	0.907560	0.813320
C111	C11	0.455040	0.864420	0.780500
C121	C12	0.506210	0.794920	0.819460
C131	C13	0.450210	0.770760	0.893820
C141	C14	0.348100	0.812740	0.925960
C151	C15	0.805000	0.400160	0.125040
C161	C16	0.716400	0.443960	0.189240
C171	C17	0.648490	0.410880	0.228740
C181	C18	0.667530	0.330860	0.207280
C191	C19	0.755660	0.286940	0.143540
C201	C20	0.823320	0.320540	0.103220
C211	C21	0.878510	0.436380	0.082400
C221	C22	0.890620	0.573960	0.922800
C231	C23	0.815420	0.618340	0.886620
C241	C24	0.833920	0.592440	0.813320
C251	C25	0.764460	0.635580	0.780500
C261	C26	0.674330	0.705080	0.819460
C271	C27	0.655970	0.729240	0.893820
C281	C28	0.725940	0.687260	0.925960
C291	C29	0.330200	0.099840	0.374960
C301	C30	0.349600	0.056040	0.310760
C311	C31	0.288110	0.089120	0.271260
C321	C32	0.205670	0.169140	0.292720
C331	C33	0.186140	0.213060	0.356460
C341	C34	0.247080	0.179460	0.396780
C351	C35	0.397290	0.063620	0.417600
C361	C36	0.387380	0.926040	0.577200
C371	C37	0.320380	0.881660	0.613380
C381	C38	0.239680	0.907560	0.686680
C391	C39	0.180540	0.864420	0.719500
C401	C40	0.198870	0.794920	0.680540
C411	C41	0.279030	0.770760	0.606180
C421	C42	0.339160	0.812740	0.574040
C431	C43	0.294840	0.400160	0.374960
C441	C44	0.339640	0.443960	0.310760
C451	C45	0.440630	0.410880	0.271260
C461	C46	0.501610	0.330860	0.292720
C471	C47	0.457400	0.286940	0.356460
C481	C48	0.356140	0.320540	0.396780
C491	C49	0.185110	0.436380	0.417600
C501	C50	0.035420	0.573960	0.577200
C511	C51	0.066240	0.618340	0.613380
C521	C52	0.073640	0.592440	0.686680
C531	C53	0.099960	0.635580	0.719500
C541	C54	0.120590	0.705080	0.680540
C551	C55	0.114790	0.729240	0.606180
C561	C56	0.086800	0.687260	0.574040
C571	C57	0.930040	0.900160	0.874960
C581	C58	0.905640	0.943960	0.810760
C591	C59	0.877230	0.910880	0.771260
C601	C60	0.874810	0.830860	0.792720
C611	C61	0.899200	0.786940	0.856460
C621	C62	0.926540	0.820540	0.896780
C631	C63	0.960910	0.936380	0.917600
C641	C64	0.813420	0.073960	0.077200
C651	C65	0.702040	0.118340	0.113380
C661	C66	0.647240	0.092440	0.186680
C671	C67	0.544960	0.135580	0.219500
C681	C68	0.493790	0.205080	0.180540
C691	C69	0.549790	0.229240	0.106180
C701	C70	0.651900	0.187260	0.074040
C711	C71	0.195000	0.599840	0.874960
C721	C72	0.283600	0.556040	0.810760
C731	C73	0.351510	0.589120	0.771260
C741	C74	0.332470	0.669140	0.792720
C751	C75	0.244340	0.713060	0.856460
C761	C76	0.176680	0.679460	0.896780
C771	C77	0.121490	0.563620	0.917600
C781	C78	0.109380	0.426040	0.077200
C791	C79	0.184580	0.381660	0.113380
C801	C80	0.166080	0.407560	0.186680
C811	C81	0.235540	0.364420	0.219500
C821	C82	0.325670	0.294920	0.180540
C831	C83	0.344030	0.270760	0.106180
C841	C84	0.274060	0.312740	0.074040
C851	C85	0.669800	0.900160	0.625040
C861	C86	0.650400	0.943960	0.689240
C871	C87	0.711890	0.910880	0.728740
C881	C88	0.794330	0.830860	0.707280
C891	C89	0.813860	0.786940	0.643540
C901	C90	0.752920	0.820540	0.603220
C911	C91	0.602710	0.936380	0.582400
C921	C92	0.612620	0.073960	0.422800
C931	C93	0.679620	0.118340	0.386620
C941	C94	0.760320	0.092440	0.313320
C951	C95	0.819460	0.135580	0.280500
C961	C96	0.801130	0.205080	0.319460
C971	C97	0.720970	0.229240	0.393820
C981	C98	0.660840	0.187260	0.425960
C991	C99	0.705160	0.599840	0.625040
C1001	C100	0.660360	0.556040	0.689240
C1011	C101	0.559370	0.589120	0.728740
C1021	C102	0.498390	0.669140	0.707280
C1031	C103	0.542600	0.713060	0.643540
C1041	C104	0.643860	0.679460	0.603220
C1051	C105	0.814890	0.563620	0.582400
C1061	C106	0.964580	0.426040	0.422800
C1071	C107	0.933760	0.381660	0.386620
C1081	C108	0.926360	0.407560	0.313320
C1091	C109	0.900040	0.364420	0.280500
C1101	C110	0.879410	0.294920	0.319460
C1111	C111	0.885210	0.270760	0.393820
C1121	C112	0.913200	0.312740	0.425960
N11	N1	0.145820	0.208360	0.250000
N21	N2	0.604180	0.291640	0.250000
N31	N3	0.854180	0.791640	0.750000
N41	N4	0.395820	0.708360	0.750000
N51	N5	0.608680	0.750000	0.782640
N61	N6	0.141320	0.750000	0.717360
N71	N7	0.391320	0.250000	0.217360
N81	N8	0.858680	0.250000	0.282640
O11	O1	0.143410	0.890260	0.983120
O21	O2	0.026520	0.996440	0.110720
O31	O3	0.026600	0.102820	0.020980
O41	O4	0.143380	0.995580	0.891660
O51	O5	0.873470	0.609740	0.983120
O61	O6	0.862760	0.503560	0.110720
O71	O7	0.952420	0.397180	0.020980
O81	O8	0.964960	0.504420	0.891660
O91	O9	0.466330	0.890260	0.516880
O101	O10	0.477040	0.996440	0.389280
O111	O11	0.370580	0.102820	0.479020
O121	O12	0.361040	0.995580	0.608340
O131	O13	0.016790	0.609740	0.516880
O141	O14	0.133680	0.503560	0.389280
O151	O15	0.150400	0.397180	0.479020
O161	O16	0.030620	0.504420	0.608340
O171	O17	0.856590	0.109740	0.016880
O181	O18	0.973480	0.003560	0.889280
O191	O19	0.973400	0.897180	0.979020
O201	O20	0.856620	0.004420	0.108340
O211	O21	0.126530	0.390260	0.016880
O221	O22	0.137240	0.496440	0.889280
O231	O23	0.047580	0.602820	0.979020
O241	O24	0.035040	0.495580	0.108340
O251	O25	0.533670	0.109740	0.483120
O261	O26	0.522960	0.003560	0.610720
O271	O27	0.629420	0.897180	0.520980
O281	O28	0.638960	0.004420	0.391660
O291	O29	0.983210	0.390260	0.483120
O301	O30	0.866320	0.496440	0.610720
O311	O31	0.849600	0.602820	0.520980
O321	O32	0.969380	0.495580	0.391660
