data_YENLUA_ion_b_PM
_symmetry_space_group_name_H-M	'P1'
_cell_length_a	36.332000
_cell_length_b	36.332000
_cell_length_c	15.208000
_cell_angle_alpha	90.000000
_cell_angle_beta	90.000000
_cell_angle_gamma	90.000000
_symmetry_Int_Tables_number 1

loop_
_symmetry_equiv_pos_as_xyz
'x,y,z'

loop_
_atom_site_label
_atom_site_type_symbol
_atom_site_fract_x
_atom_site_fract_y
_atom_site_fract_z
C11	C1	0.069800	0.352100	0.222600
C21	C2	0.073700	0.326800	0.301600
C31	C3	0.145700	0.425700	0.303800
C41	C4	0.163200	0.430500	0.213500
C51	C5	0.206000	0.304900	0.279700
C61	C6	0.187600	0.291700	0.192300
C71	C7	0.045600	0.297300	0.421800
C81	C8	0.047300	0.258500	0.420100
C91	C9	0.116100	0.454600	0.422400
C101	C10	0.185000	0.249000	0.078400
C111	C11	0.157200	0.226600	0.079300
C121	C12	0.078100	0.453100	0.419400
C131	C13	0.057100	0.449200	0.335300
H141	H14	0.073800	0.450500	0.286500
H151	H15	0.039300	0.468700	0.330900
H161	H16	0.044600	0.425900	0.334600
C171	C17	0.051700	0.237600	0.335300
H181	H18	0.050700	0.254400	0.286700
H191	H19	0.032100	0.219900	0.329900
H201	H20	0.074900	0.225000	0.335100
C211	C21	0.141700	0.209300	0.163400
H221	H22	0.121000	0.194100	0.148900
H231	H23	0.134000	0.228400	0.203000
H241	H24	0.160300	0.194600	0.191000
Mn251	Mn25	0.147270	0.352120	0.248240
N261	N26	0.044700	0.316800	0.341400
N271	N27	0.137000	0.457200	0.339300
N281	N28	0.201100	0.262730	0.160100
O291	O29	0.036100	0.357700	0.199700
O301	O30	0.097100	0.363180	0.182800
O311	O31	0.107200	0.319000	0.324600
O321	O32	0.171100	0.462300	0.189300
O331	O33	0.173000	0.400020	0.175700
O341	O34	0.140200	0.394700	0.332400
O351	O35	0.161300	0.311520	0.163900
O361	O36	0.193200	0.333140	0.315000
O371	O37	0.231100	0.285040	0.308900
C461	C46	0.930200	0.647900	0.222600
C471	C47	0.926300	0.673200	0.301600
C481	C48	0.854300	0.574300	0.303800
C491	C49	0.836800	0.569500	0.213500
C501	C50	0.794000	0.695100	0.279700
C511	C51	0.812400	0.708300	0.192300
C521	C52	0.954400	0.702700	0.421800
C531	C53	0.952700	0.741500	0.420100
C541	C54	0.883900	0.545400	0.422400
C551	C55	0.815000	0.751000	0.078400
C561	C56	0.842800	0.773400	0.079300
C571	C57	0.921900	0.546900	0.419400
C581	C58	0.942900	0.550800	0.335300
H591	H59	0.926200	0.549500	0.286500
H601	H60	0.960700	0.531300	0.330900
H611	H61	0.955400	0.574100	0.334600
C621	C62	0.948300	0.762400	0.335300
H631	H63	0.949300	0.745600	0.286700
H641	H64	0.967900	0.780100	0.329900
H651	H65	0.925100	0.775000	0.335100
C661	C66	0.858300	0.790700	0.163400
H671	H67	0.879000	0.805900	0.148900
H681	H68	0.866000	0.771600	0.203000
H691	H69	0.839700	0.805400	0.191000
Mn701	Mn70	0.852730	0.647880	0.248240
N711	N71	0.955300	0.683200	0.341400
N721	N72	0.863000	0.542800	0.339300
N731	N73	0.798900	0.737270	0.160100
O741	O74	0.963900	0.642300	0.199700
O751	O75	0.902900	0.636820	0.182800
O761	O76	0.892800	0.681000	0.324600
O771	O77	0.828900	0.537700	0.189300
O781	O78	0.827000	0.599980	0.175700
O791	O79	0.859800	0.605300	0.332400
O801	O80	0.838700	0.688480	0.163900
O811	O81	0.806800	0.666860	0.315000
O821	O82	0.768900	0.714960	0.308900
C911	C91	0.647900	0.069800	0.222600
C921	C92	0.673200	0.073700	0.301600
C931	C93	0.574300	0.145700	0.303800
C941	C94	0.569500	0.163200	0.213500
C951	C95	0.695100	0.206000	0.279700
C961	C96	0.708300	0.187600	0.192300
C971	C97	0.702700	0.045600	0.421800
C981	C98	0.741500	0.047300	0.420100
C991	C99	0.545400	0.116100	0.422400
C1001	C100	0.751000	0.185000	0.078400
C1011	C101	0.773400	0.157200	0.079300
C1021	C102	0.546900	0.078100	0.419400
C1031	C103	0.550800	0.057100	0.335300
H1041	H104	0.549500	0.073800	0.286500
H1051	H105	0.531300	0.039300	0.330900
H1061	H106	0.574100	0.044600	0.334600
C1071	C107	0.762400	0.051700	0.335300
H1081	H108	0.745600	0.050700	0.286700
H1091	H109	0.780100	0.032100	0.329900
H1101	H110	0.775000	0.074900	0.335100
C1111	C111	0.790700	0.141700	0.163400
H1121	H112	0.805900	0.121000	0.148900
H1131	H113	0.771600	0.134000	0.203000
H1141	H114	0.805400	0.160300	0.191000
Mn1151	Mn115	0.647880	0.147270	0.248240
N1161	N116	0.683200	0.044700	0.341400
N1171	N117	0.542800	0.137000	0.339300
N1181	N118	0.737270	0.201100	0.160100
O1191	O119	0.642300	0.036100	0.199700
O1201	O120	0.636820	0.097100	0.182800
O1211	O121	0.681000	0.107200	0.324600
O1221	O122	0.537700	0.171100	0.189300
O1231	O123	0.599980	0.173000	0.175700
O1241	O124	0.605300	0.140200	0.332400
O1251	O125	0.688480	0.161300	0.163900
O1261	O126	0.666860	0.193200	0.315000
O1271	O127	0.714960	0.231100	0.308900
C1361	C136	0.352100	0.930200	0.222600
C1371	C137	0.326800	0.926300	0.301600
C1381	C138	0.425700	0.854300	0.303800
C1391	C139	0.430500	0.836800	0.213500
C1401	C140	0.304900	0.794000	0.279700
C1411	C141	0.291700	0.812400	0.192300
C1421	C142	0.297300	0.954400	0.421800
C1431	C143	0.258500	0.952700	0.420100
C1441	C144	0.454600	0.883900	0.422400
C1451	C145	0.249000	0.815000	0.078400
C1461	C146	0.226600	0.842800	0.079300
C1471	C147	0.453100	0.921900	0.419400
C1481	C148	0.449200	0.942900	0.335300
H1491	H149	0.450500	0.926200	0.286500
H1501	H150	0.468700	0.960700	0.330900
H1511	H151	0.425900	0.955400	0.334600
C1521	C152	0.237600	0.948300	0.335300
H1531	H153	0.254400	0.949300	0.286700
H1541	H154	0.219900	0.967900	0.329900
H1551	H155	0.225000	0.925100	0.335100
C1561	C156	0.209300	0.858300	0.163400
H1571	H157	0.194100	0.879000	0.148900
H1581	H158	0.228400	0.866000	0.203000
H1591	H159	0.194600	0.839700	0.191000
Mn1601	Mn160	0.352120	0.852730	0.248240
N1611	N161	0.316800	0.955300	0.341400
N1621	N162	0.457200	0.863000	0.339300
N1631	N163	0.262730	0.798900	0.160100
O1641	O164	0.357700	0.963900	0.199700
O1651	O165	0.363180	0.902900	0.182800
O1661	O166	0.319000	0.892800	0.324600
O1671	O167	0.462300	0.828900	0.189300
O1681	O168	0.400020	0.827000	0.175700
O1691	O169	0.394700	0.859800	0.332400
O1701	O170	0.311520	0.838700	0.163900
O1711	O171	0.333140	0.806800	0.315000
O1721	O172	0.285040	0.768900	0.308900
C1811	C181	0.930200	0.352100	0.777400
C1821	C182	0.926300	0.326800	0.698400
C1831	C183	0.854300	0.425700	0.696200
C1841	C184	0.836800	0.430500	0.786500
C1851	C185	0.794000	0.304900	0.720300
C1861	C186	0.812400	0.291700	0.807700
C1871	C187	0.954400	0.297300	0.578200
C1881	C188	0.952700	0.258500	0.579900
C1891	C189	0.883900	0.454600	0.577600
C1901	C190	0.815000	0.249000	0.921600
C1911	C191	0.842800	0.226600	0.920700
C1921	C192	0.921900	0.453100	0.580600
C1931	C193	0.942900	0.449200	0.664700
H1941	H194	0.926200	0.450500	0.713500
H1951	H195	0.960700	0.468700	0.669100
H1961	H196	0.955400	0.425900	0.665400
C1971	C197	0.948300	0.237600	0.664700
H1981	H198	0.949300	0.254400	0.713300
H1991	H199	0.967900	0.219900	0.670100
H2001	H200	0.925100	0.225000	0.664900
C2011	C201	0.858300	0.209300	0.836600
H2021	H202	0.879000	0.194100	0.851100
H2031	H203	0.866000	0.228400	0.797000
H2041	H204	0.839700	0.194600	0.809000
Mn2051	Mn205	0.852730	0.352120	0.751760
N2061	N206	0.955300	0.316800	0.658600
N2071	N207	0.863000	0.457200	0.660700
N2081	N208	0.798900	0.262730	0.839900
O2091	O209	0.963900	0.357700	0.800300
O2101	O210	0.902900	0.363180	0.817200
O2111	O211	0.892800	0.319000	0.675400
O2121	O212	0.828900	0.462300	0.810700
O2131	O213	0.827000	0.400020	0.824300
O2141	O214	0.859800	0.394700	0.667600
O2151	O215	0.838700	0.311520	0.836100
O2161	O216	0.806800	0.333140	0.685000
O2171	O217	0.768900	0.285040	0.691100
C2261	C226	0.069800	0.647900	0.777400
C2271	C227	0.073700	0.673200	0.698400
C2281	C228	0.145700	0.574300	0.696200
C2291	C229	0.163200	0.569500	0.786500
C2301	C230	0.206000	0.695100	0.720300
C2311	C231	0.187600	0.708300	0.807700
C2321	C232	0.045600	0.702700	0.578200
C2331	C233	0.047300	0.741500	0.579900
C2341	C234	0.116100	0.545400	0.577600
C2351	C235	0.185000	0.751000	0.921600
C2361	C236	0.157200	0.773400	0.920700
C2371	C237	0.078100	0.546900	0.580600
C2381	C238	0.057100	0.550800	0.664700
H2391	H239	0.073800	0.549500	0.713500
H2401	H240	0.039300	0.531300	0.669100
H2411	H241	0.044600	0.574100	0.665400
C2421	C242	0.051700	0.762400	0.664700
H2431	H243	0.050700	0.745600	0.713300
H2441	H244	0.032100	0.780100	0.670100
H2451	H245	0.074900	0.775000	0.664900
C2461	C246	0.141700	0.790700	0.836600
H2471	H247	0.121000	0.805900	0.851100
H2481	H248	0.134000	0.771600	0.797000
H2491	H249	0.160300	0.805400	0.809000
Mn2501	Mn250	0.147270	0.647880	0.751760
N2511	N251	0.044700	0.683200	0.658600
N2521	N252	0.137000	0.542800	0.660700
N2531	N253	0.201100	0.737270	0.839900
O2541	O254	0.036100	0.642300	0.800300
O2551	O255	0.097100	0.636820	0.817200
O2561	O256	0.107200	0.681000	0.675400
O2571	O257	0.171100	0.537700	0.810700
O2581	O258	0.173000	0.599980	0.824300
O2591	O259	0.140200	0.605300	0.667600
O2601	O260	0.161300	0.688480	0.836100
O2611	O261	0.193200	0.666860	0.685000
O2621	O262	0.231100	0.714960	0.691100
C2711	C271	0.352100	0.069800	0.777400
C2721	C272	0.326800	0.073700	0.698400
C2731	C273	0.425700	0.145700	0.696200
C2741	C274	0.430500	0.163200	0.786500
C2751	C275	0.304900	0.206000	0.720300
C2761	C276	0.291700	0.187600	0.807700
C2771	C277	0.297300	0.045600	0.578200
C2781	C278	0.258500	0.047300	0.579900
C2791	C279	0.454600	0.116100	0.577600
C2801	C280	0.249000	0.185000	0.921600
C2811	C281	0.226600	0.157200	0.920700
C2821	C282	0.453100	0.078100	0.580600
C2831	C283	0.449200	0.057100	0.664700
H2841	H284	0.450500	0.073800	0.713500
H2851	H285	0.468700	0.039300	0.669100
H2861	H286	0.425900	0.044600	0.665400
C2871	C287	0.237600	0.051700	0.664700
H2881	H288	0.254400	0.050700	0.713300
H2891	H289	0.219900	0.032100	0.670100
H2901	H290	0.225000	0.074900	0.664900
C2911	C291	0.209300	0.141700	0.836600
H2921	H292	0.194100	0.121000	0.851100
H2931	H293	0.228400	0.134000	0.797000
H2941	H294	0.194600	0.160300	0.809000
Mn2951	Mn295	0.352120	0.147270	0.751760
N2961	N296	0.316800	0.044700	0.658600
N2971	N297	0.457200	0.137000	0.660700
N2981	N298	0.262730	0.201100	0.839900
O2991	O299	0.357700	0.036100	0.800300
O3001	O300	0.363180	0.097100	0.817200
O3011	O301	0.319000	0.107200	0.675400
O3021	O302	0.462300	0.171100	0.810700
O3031	O303	0.400020	0.173000	0.824300
O3041	O304	0.394700	0.140200	0.667600
O3051	O305	0.311520	0.161300	0.836100
O3061	O306	0.333140	0.193200	0.685000
O3071	O307	0.285040	0.231100	0.691100
C3161	C316	0.647900	0.930200	0.777400
C3171	C317	0.673200	0.926300	0.698400
C3181	C318	0.574300	0.854300	0.696200
C3191	C319	0.569500	0.836800	0.786500
C3201	C320	0.695100	0.794000	0.720300
C3211	C321	0.708300	0.812400	0.807700
C3221	C322	0.702700	0.954400	0.578200
C3231	C323	0.741500	0.952700	0.579900
C3241	C324	0.545400	0.883900	0.577600
C3251	C325	0.751000	0.815000	0.921600
C3261	C326	0.773400	0.842800	0.920700
C3271	C327	0.546900	0.921900	0.580600
C3281	C328	0.550800	0.942900	0.664700
H3291	H329	0.549500	0.926200	0.713500
H3301	H330	0.531300	0.960700	0.669100
H3311	H331	0.574100	0.955400	0.665400
C3321	C332	0.762400	0.948300	0.664700
H3331	H333	0.745600	0.949300	0.713300
H3341	H334	0.780100	0.967900	0.670100
H3351	H335	0.775000	0.925100	0.664900
C3361	C336	0.790700	0.858300	0.836600
H3371	H337	0.805900	0.879000	0.851100
H3381	H338	0.771600	0.866000	0.797000
H3391	H339	0.805400	0.839700	0.809000
Mn3401	Mn340	0.647880	0.852730	0.751760
N3411	N341	0.683200	0.955300	0.658600
N3421	N342	0.542800	0.863000	0.660700
N3431	N343	0.737270	0.798900	0.839900
O3441	O344	0.642300	0.963900	0.800300
O3451	O345	0.636820	0.902900	0.817200
O3461	O346	0.681000	0.892800	0.675400
O3471	O347	0.537700	0.828900	0.810700
O3481	O348	0.599980	0.827000	0.824300
O3491	O349	0.605300	0.859800	0.667600
O3501	O350	0.688480	0.838700	0.836100
O3511	O351	0.666860	0.806800	0.685000
O3521	O352	0.714960	0.768900	0.691100
C3611	C361	0.930200	0.647900	0.777400
C3621	C362	0.926300	0.673200	0.698400
C3631	C363	0.854300	0.574300	0.696200
C3641	C364	0.836800	0.569500	0.786500
C3651	C365	0.794000	0.695100	0.720300
C3661	C366	0.812400	0.708300	0.807700
C3671	C367	0.954400	0.702700	0.578200
C3681	C368	0.952700	0.741500	0.579900
C3691	C369	0.883900	0.545400	0.577600
C3701	C370	0.815000	0.751000	0.921600
C3711	C371	0.842800	0.773400	0.920700
C3721	C372	0.921900	0.546900	0.580600
C3731	C373	0.942900	0.550800	0.664700
H3741	H374	0.926200	0.549500	0.713500
H3751	H375	0.960700	0.531300	0.669100
H3761	H376	0.955400	0.574100	0.665400
C3771	C377	0.948300	0.762400	0.664700
H3781	H378	0.949300	0.745600	0.713300
H3791	H379	0.967900	0.780100	0.670100
H3801	H380	0.925100	0.775000	0.664900
C3811	C381	0.858300	0.790700	0.836600
H3821	H382	0.879000	0.805900	0.851100
H3831	H383	0.866000	0.771600	0.797000
H3841	H384	0.839700	0.805400	0.809000
Mn3851	Mn385	0.852730	0.647880	0.751760
N3861	N386	0.955300	0.683200	0.658600
N3871	N387	0.863000	0.542800	0.660700
N3881	N388	0.798900	0.737270	0.839900
O3891	O389	0.963900	0.642300	0.800300
O3901	O390	0.902900	0.636820	0.817200
O3911	O391	0.892800	0.681000	0.675400
O3921	O392	0.828900	0.537700	0.810700
O3931	O393	0.827000	0.599980	0.824300
O3941	O394	0.859800	0.605300	0.667600
O3951	O395	0.838700	0.688480	0.836100
O3961	O396	0.806800	0.666860	0.685000
O3971	O397	0.768900	0.714960	0.691100
C4061	C406	0.069800	0.352100	0.777400
C4071	C407	0.073700	0.326800	0.698400
C4081	C408	0.145700	0.425700	0.696200
C4091	C409	0.163200	0.430500	0.786500
C4101	C410	0.206000	0.304900	0.720300
C4111	C411	0.187600	0.291700	0.807700
C4121	C412	0.045600	0.297300	0.578200
C4131	C413	0.047300	0.258500	0.579900
C4141	C414	0.116100	0.454600	0.577600
C4151	C415	0.185000	0.249000	0.921600
C4161	C416	0.157200	0.226600	0.920700
C4171	C417	0.078100	0.453100	0.580600
C4181	C418	0.057100	0.449200	0.664700
H4191	H419	0.073800	0.450500	0.713500
H4201	H420	0.039300	0.468700	0.669100
H4211	H421	0.044600	0.425900	0.665400
C4221	C422	0.051700	0.237600	0.664700
H4231	H423	0.050700	0.254400	0.713300
H4241	H424	0.032100	0.219900	0.670100
H4251	H425	0.074900	0.225000	0.664900
C4261	C426	0.141700	0.209300	0.836600
H4271	H427	0.121000	0.194100	0.851100
H4281	H428	0.134000	0.228400	0.797000
H4291	H429	0.160300	0.194600	0.809000
Mn4301	Mn430	0.147270	0.352120	0.751760
N4311	N431	0.044700	0.316800	0.658600
N4321	N432	0.137000	0.457200	0.660700
N4331	N433	0.201100	0.262730	0.839900
O4341	O434	0.036100	0.357700	0.800300
O4351	O435	0.097100	0.363180	0.817200
O4361	O436	0.107200	0.319000	0.675400
O4371	O437	0.171100	0.462300	0.810700
O4381	O438	0.173000	0.400020	0.824300
O4391	O439	0.140200	0.394700	0.667600
O4401	O440	0.161300	0.311520	0.836100
O4411	O441	0.193200	0.333140	0.685000
O4421	O442	0.231100	0.285040	0.691100
C4511	C451	0.352100	0.930200	0.777400
C4521	C452	0.326800	0.926300	0.698400
C4531	C453	0.425700	0.854300	0.696200
C4541	C454	0.430500	0.836800	0.786500
C4551	C455	0.304900	0.794000	0.720300
C4561	C456	0.291700	0.812400	0.807700
C4571	C457	0.297300	0.954400	0.578200
C4581	C458	0.258500	0.952700	0.579900
C4591	C459	0.454600	0.883900	0.577600
C4601	C460	0.249000	0.815000	0.921600
C4611	C461	0.226600	0.842800	0.920700
C4621	C462	0.453100	0.921900	0.580600
C4631	C463	0.449200	0.942900	0.664700
H4641	H464	0.450500	0.926200	0.713500
H4651	H465	0.468700	0.960700	0.669100
H4661	H466	0.425900	0.955400	0.665400
C4671	C467	0.237600	0.948300	0.664700
H4681	H468	0.254400	0.949300	0.713300
H4691	H469	0.219900	0.967900	0.670100
H4701	H470	0.225000	0.925100	0.664900
C4711	C471	0.209300	0.858300	0.836600
H4721	H472	0.194100	0.879000	0.851100
H4731	H473	0.228400	0.866000	0.797000
H4741	H474	0.194600	0.839700	0.809000
Mn4751	Mn475	0.352120	0.852730	0.751760
N4761	N476	0.316800	0.955300	0.658600
N4771	N477	0.457200	0.863000	0.660700
N4781	N478	0.262730	0.798900	0.839900
O4791	O479	0.357700	0.963900	0.800300
O4801	O480	0.363180	0.902900	0.817200
O4811	O481	0.319000	0.892800	0.675400
O4821	O482	0.462300	0.828900	0.810700
O4831	O483	0.400020	0.827000	0.824300
O4841	O484	0.394700	0.859800	0.667600
O4851	O485	0.311520	0.838700	0.836100
O4861	O486	0.333140	0.806800	0.685000
O4871	O487	0.285040	0.768900	0.691100
C4961	C496	0.647900	0.069800	0.777400
C4971	C497	0.673200	0.073700	0.698400
C4981	C498	0.574300	0.145700	0.696200
C4991	C499	0.569500	0.163200	0.786500
C5001	C500	0.695100	0.206000	0.720300
C5011	C501	0.708300	0.187600	0.807700
C5021	C502	0.702700	0.045600	0.578200
C5031	C503	0.741500	0.047300	0.579900
C5041	C504	0.545400	0.116100	0.577600
C5051	C505	0.751000	0.185000	0.921600
C5061	C506	0.773400	0.157200	0.920700
C5071	C507	0.546900	0.078100	0.580600
C5081	C508	0.550800	0.057100	0.664700
H5091	H509	0.549500	0.073800	0.713500
H5101	H510	0.531300	0.039300	0.669100
H5111	H511	0.574100	0.044600	0.665400
C5121	C512	0.762400	0.051700	0.664700
H5131	H513	0.745600	0.050700	0.713300
H5141	H514	0.780100	0.032100	0.670100
H5151	H515	0.775000	0.074900	0.664900
C5161	C516	0.790700	0.141700	0.836600
H5171	H517	0.805900	0.121000	0.851100
H5181	H518	0.771600	0.134000	0.797000
H5191	H519	0.805400	0.160300	0.809000
Mn5201	Mn520	0.647880	0.147270	0.751760
N5211	N521	0.683200	0.044700	0.658600
N5221	N522	0.542800	0.137000	0.660700
N5231	N523	0.737270	0.201100	0.839900
O5241	O524	0.642300	0.036100	0.800300
O5251	O525	0.636820	0.097100	0.817200
O5261	O526	0.681000	0.107200	0.675400
O5271	O527	0.537700	0.171100	0.810700
O5281	O528	0.599980	0.173000	0.824300
O5291	O529	0.605300	0.140200	0.667600
O5301	O530	0.688480	0.161300	0.836100
O5311	O531	0.666860	0.193200	0.685000
O5321	O532	0.714960	0.231100	0.691100
C5411	C541	0.069800	0.647900	0.222600
C5421	C542	0.073700	0.673200	0.301600
C5431	C543	0.145700	0.574300	0.303800
C5441	C544	0.163200	0.569500	0.213500
C5451	C545	0.206000	0.695100	0.279700
C5461	C546	0.187600	0.708300	0.192300
C5471	C547	0.045600	0.702700	0.421800
C5481	C548	0.047300	0.741500	0.420100
C5491	C549	0.116100	0.545400	0.422400
C5501	C550	0.185000	0.751000	0.078400
C5511	C551	0.157200	0.773400	0.079300
C5521	C552	0.078100	0.546900	0.419400
C5531	C553	0.057100	0.550800	0.335300
H5541	H554	0.073800	0.549500	0.286500
H5551	H555	0.039300	0.531300	0.330900
H5561	H556	0.044600	0.574100	0.334600
C5571	C557	0.051700	0.762400	0.335300
H5581	H558	0.050700	0.745600	0.286700
H5591	H559	0.032100	0.780100	0.329900
H5601	H560	0.074900	0.775000	0.335100
C5611	C561	0.141700	0.790700	0.163400
H5621	H562	0.121000	0.805900	0.148900
H5631	H563	0.134000	0.771600	0.203000
H5641	H564	0.160300	0.805400	0.191000
Mn5651	Mn565	0.147270	0.647880	0.248240
N5661	N566	0.044700	0.683200	0.341400
N5671	N567	0.137000	0.542800	0.339300
N5681	N568	0.201100	0.737270	0.160100
O5691	O569	0.036100	0.642300	0.199700
O5701	O570	0.097100	0.636820	0.182800
O5711	O571	0.107200	0.681000	0.324600
O5721	O572	0.171100	0.537700	0.189300
O5731	O573	0.173000	0.599980	0.175700
O5741	O574	0.140200	0.605300	0.332400
O5751	O575	0.161300	0.688480	0.163900
O5761	O576	0.193200	0.666860	0.315000
O5771	O577	0.231100	0.714960	0.308900
C5861	C586	0.930200	0.352100	0.222600
C5871	C587	0.926300	0.326800	0.301600
C5881	C588	0.854300	0.425700	0.303800
C5891	C589	0.836800	0.430500	0.213500
C5901	C590	0.794000	0.304900	0.279700
C5911	C591	0.812400	0.291700	0.192300
C5921	C592	0.954400	0.297300	0.421800
C5931	C593	0.952700	0.258500	0.420100
C5941	C594	0.883900	0.454600	0.422400
C5951	C595	0.815000	0.249000	0.078400
C5961	C596	0.842800	0.226600	0.079300
C5971	C597	0.921900	0.453100	0.419400
C5981	C598	0.942900	0.449200	0.335300
H5991	H599	0.926200	0.450500	0.286500
H6001	H600	0.960700	0.468700	0.330900
H6011	H601	0.955400	0.425900	0.334600
C6021	C602	0.948300	0.237600	0.335300
H6031	H603	0.949300	0.254400	0.286700
H6041	H604	0.967900	0.219900	0.329900
H6051	H605	0.925100	0.225000	0.335100
C6061	C606	0.858300	0.209300	0.163400
H6071	H607	0.879000	0.194100	0.148900
H6081	H608	0.866000	0.228400	0.203000
H6091	H609	0.839700	0.194600	0.191000
Mn6101	Mn610	0.852730	0.352120	0.248240
N6111	N611	0.955300	0.316800	0.341400
N6121	N612	0.863000	0.457200	0.339300
N6131	N613	0.798900	0.262730	0.160100
O6141	O614	0.963900	0.357700	0.199700
O6151	O615	0.902900	0.363180	0.182800
O6161	O616	0.892800	0.319000	0.324600
O6171	O617	0.828900	0.462300	0.189300
O6181	O618	0.827000	0.400020	0.175700
O6191	O619	0.859800	0.394700	0.332400
O6201	O620	0.838700	0.311520	0.163900
O6211	O621	0.806800	0.333140	0.315000
O6221	O622	0.768900	0.285040	0.308900
C6311	C631	0.647900	0.930200	0.222600
C6321	C632	0.673200	0.926300	0.301600
C6331	C633	0.574300	0.854300	0.303800
C6341	C634	0.569500	0.836800	0.213500
C6351	C635	0.695100	0.794000	0.279700
C6361	C636	0.708300	0.812400	0.192300
C6371	C637	0.702700	0.954400	0.421800
C6381	C638	0.741500	0.952700	0.420100
C6391	C639	0.545400	0.883900	0.422400
C6401	C640	0.751000	0.815000	0.078400
C6411	C641	0.773400	0.842800	0.079300
C6421	C642	0.546900	0.921900	0.419400
C6431	C643	0.550800	0.942900	0.335300
H6441	H644	0.549500	0.926200	0.286500
H6451	H645	0.531300	0.960700	0.330900
H6461	H646	0.574100	0.955400	0.334600
C6471	C647	0.762400	0.948300	0.335300
H6481	H648	0.745600	0.949300	0.286700
H6491	H649	0.780100	0.967900	0.329900
H6501	H650	0.775000	0.925100	0.335100
C6511	C651	0.790700	0.858300	0.163400
H6521	H652	0.805900	0.879000	0.148900
H6531	H653	0.771600	0.866000	0.203000
H6541	H654	0.805400	0.839700	0.191000
Mn6551	Mn655	0.647880	0.852730	0.248240
N6561	N656	0.683200	0.955300	0.341400
N6571	N657	0.542800	0.863000	0.339300
N6581	N658	0.737270	0.798900	0.160100
O6591	O659	0.642300	0.963900	0.199700
O6601	O660	0.636820	0.902900	0.182800
O6611	O661	0.681000	0.892800	0.324600
O6621	O662	0.537700	0.828900	0.189300
O6631	O663	0.599980	0.827000	0.175700
O6641	O664	0.605300	0.859800	0.332400
O6651	O665	0.688480	0.838700	0.163900
O6661	O666	0.666860	0.806800	0.315000
O6671	O667	0.714960	0.768900	0.308900
C6761	C676	0.352100	0.069800	0.222600
C6771	C677	0.326800	0.073700	0.301600
C6781	C678	0.425700	0.145700	0.303800
C6791	C679	0.430500	0.163200	0.213500
C6801	C680	0.304900	0.206000	0.279700
C6811	C681	0.291700	0.187600	0.192300
C6821	C682	0.297300	0.045600	0.421800
C6831	C683	0.258500	0.047300	0.420100
C6841	C684	0.454600	0.116100	0.422400
C6851	C685	0.249000	0.185000	0.078400
C6861	C686	0.226600	0.157200	0.079300
C6871	C687	0.453100	0.078100	0.419400
C6881	C688	0.449200	0.057100	0.335300
H6891	H689	0.450500	0.073800	0.286500
H6901	H690	0.468700	0.039300	0.330900
H6911	H691	0.425900	0.044600	0.334600
C6921	C692	0.237600	0.051700	0.335300
H6931	H693	0.254400	0.050700	0.286700
H6941	H694	0.219900	0.032100	0.329900
H6951	H695	0.225000	0.074900	0.335100
C6961	C696	0.209300	0.141700	0.163400
H6971	H697	0.194100	0.121000	0.148900
H6981	H698	0.228400	0.134000	0.203000
H6991	H699	0.194600	0.160300	0.191000
Mn7001	Mn700	0.352120	0.147270	0.248240
N7011	N701	0.316800	0.044700	0.341400
N7021	N702	0.457200	0.137000	0.339300
N7031	N703	0.262730	0.201100	0.160100
O7041	O704	0.357700	0.036100	0.199700
O7051	O705	0.363180	0.097100	0.182800
O7061	O706	0.319000	0.107200	0.324600
O7071	O707	0.462300	0.171100	0.189300
O7081	O708	0.400020	0.173000	0.175700
O7091	O709	0.394700	0.140200	0.332400
O7101	O710	0.311520	0.161300	0.163900
O7111	O711	0.333140	0.193200	0.315000
O7121	O712	0.285040	0.231100	0.308900
C7211	C721	0.046600	0.316800	0.500000
C7221	C722	0.050000	0.239900	0.500000
H7231	H723	0.053500	0.214500	0.500000
C7241	C724	0.137300	0.455600	0.500000
C7251	C725	0.178300	0.454200	0.500000
C7261	C726	0.059900	0.451400	0.500000
H7271	H727	0.034400	0.449100	0.500000
C7281	C728	0.046500	0.358600	0.500000
O7301	O730	0.252000	0.213500	0.500000
C7321	C732	0.953400	0.683200	0.500000
C7331	C733	0.950000	0.760100	0.500000
H7341	H734	0.946500	0.785500	0.500000
C7351	C735	0.862700	0.544400	0.500000
C7361	C736	0.821700	0.545800	0.500000
C7371	C737	0.940100	0.548600	0.500000
H7381	H738	0.965600	0.550900	0.500000
C7391	C739	0.953500	0.641400	0.500000
O7411	O741	0.748000	0.786500	0.500000
C7431	C743	0.683200	0.046600	0.500000
C7441	C744	0.760100	0.050000	0.500000
H7451	H745	0.785500	0.053500	0.500000
C7461	C746	0.544400	0.137300	0.500000
C7471	C747	0.545800	0.178300	0.500000
C7481	C748	0.548600	0.059900	0.500000
H7491	H749	0.550900	0.034400	0.500000
C7501	C750	0.641400	0.046500	0.500000
O7521	O752	0.786500	0.252000	0.500000
C7541	C754	0.316800	0.953400	0.500000
C7551	C755	0.239900	0.950000	0.500000
H7561	H756	0.214500	0.946500	0.500000
C7571	C757	0.455600	0.862700	0.500000
C7581	C758	0.454200	0.821700	0.500000
C7591	C759	0.451400	0.940100	0.500000
H7601	H760	0.449100	0.965600	0.500000
C7611	C761	0.358600	0.953500	0.500000
O7631	O763	0.213500	0.748000	0.500000
C7651	C765	0.953400	0.316800	0.500000
C7661	C766	0.950000	0.239900	0.500000
H7671	H767	0.946500	0.214500	0.500000
C7681	C768	0.862700	0.455600	0.500000
C7691	C769	0.821700	0.454200	0.500000
C7701	C770	0.940100	0.451400	0.500000
H7711	H771	0.965600	0.449100	0.500000
C7721	C772	0.953500	0.358600	0.500000
O7741	O774	0.748000	0.213500	0.500000
C7761	C776	0.046600	0.683200	0.500000
C7771	C777	0.050000	0.760100	0.500000
H7781	H778	0.053500	0.785500	0.500000
C7791	C779	0.137300	0.544400	0.500000
C7801	C780	0.178300	0.545800	0.500000
C7811	C781	0.059900	0.548600	0.500000
H7821	H782	0.034400	0.550900	0.500000
C7831	C783	0.046500	0.641400	0.500000
O7851	O785	0.252000	0.786500	0.500000
C7871	C787	0.316800	0.046600	0.500000
C7881	C788	0.239900	0.050000	0.500000
H7891	H789	0.214500	0.053500	0.500000
C7901	C790	0.455600	0.137300	0.500000
C7911	C791	0.454200	0.178300	0.500000
C7921	C792	0.451400	0.059900	0.500000
H7931	H793	0.449100	0.034400	0.500000
C7941	C794	0.358600	0.046500	0.500000
O7961	O796	0.213500	0.252000	0.500000
C7981	C798	0.683200	0.953400	0.500000
C7991	C799	0.760100	0.950000	0.500000
H8001	H800	0.785500	0.946500	0.500000
C8011	C801	0.544400	0.862700	0.500000
C8021	C802	0.545800	0.821700	0.500000
C8031	C803	0.548600	0.940100	0.500000
H8041	H804	0.550900	0.965600	0.500000
C8051	C805	0.641400	0.953500	0.500000
O8071	O807	0.786500	0.748000	0.500000
C8091	C809	0.199800	0.263200	0.000000
C8101	C810	0.228400	0.292100	0.000000
C8111	C811	0.142400	0.211700	0.000000
H8121	H812	0.124300	0.193600	0.000000
C8171	C817	0.800200	0.736800	0.000000
C8181	C818	0.771600	0.707900	0.000000
C8191	C819	0.857600	0.788300	0.000000
H8201	H820	0.875700	0.806400	0.000000
C8251	C825	0.736800	0.199800	0.000000
C8261	C826	0.707900	0.228400	0.000000
C8271	C827	0.788300	0.142400	0.000000
H8281	H828	0.806400	0.124300	0.000000
C8331	C833	0.263200	0.800200	0.000000
C8341	C834	0.292100	0.771600	0.000000
C8351	C835	0.211700	0.857600	0.000000
H8361	H836	0.193600	0.875700	0.000000
C8411	C841	0.800200	0.263200	0.000000
C8421	C842	0.771600	0.292100	0.000000
C8431	C843	0.857600	0.211700	0.000000
H8441	H844	0.875700	0.193600	0.000000
C8491	C849	0.199800	0.736800	0.000000
C8501	C850	0.228400	0.707900	0.000000
C8511	C851	0.142400	0.788300	0.000000
H8521	H852	0.124300	0.806400	0.000000
C8571	C857	0.263200	0.199800	0.000000
C8581	C858	0.292100	0.228400	0.000000
C8591	C859	0.211700	0.142400	0.000000
H8601	H860	0.193600	0.124300	0.000000
C8651	C865	0.736800	0.800200	0.000000
C8661	C866	0.707900	0.771600	0.000000
C8671	C867	0.788300	0.857600	0.000000
H8681	H868	0.806400	0.875700	0.000000
Cu8731	Cu873	0.000000	0.332590	0.273660
Cu8761	Cu876	0.000000	0.667410	0.273660
Cu8791	Cu879	0.667410	0.000000	0.273660
Cu8821	Cu882	0.332590	0.000000	0.273660
Cu8851	Cu885	0.000000	0.332590	0.726340
Cu8881	Cu888	0.000000	0.667410	0.726340
Cu8911	Cu891	0.332590	0.000000	0.726340
Cu8941	Cu894	0.667410	0.000000	0.726340
Cu8971	Cu897	0.151850	0.500000	0.269380
Cu9021	Cu902	0.848150	0.500000	0.269380
Cu9071	Cu907	0.500000	0.151850	0.269380
Cu9121	Cu912	0.500000	0.848150	0.269380
Cu9171	Cu917	0.848150	0.500000	0.730620
Cu9221	Cu922	0.151850	0.500000	0.730620
Cu9271	Cu927	0.500000	0.151850	0.730620
Cu9321	Cu932	0.500000	0.848150	0.730620
Cu9371	Cu937	0.242300	0.242300	0.230920
Na9401	Na940	0.272500	0.272500	0.430100
Cu9411	Cu941	0.757700	0.757700	0.230920
Na9441	Na944	0.727500	0.727500	0.430100
Cu9451	Cu945	0.757700	0.242300	0.230920
Na9481	Na948	0.727500	0.272500	0.430100
Cu9491	Cu949	0.242300	0.757700	0.230920
Na9521	Na952	0.272500	0.727500	0.430100
Cu9531	Cu953	0.757700	0.242300	0.769080
Na9561	Na956	0.727500	0.272500	0.569900
Cu9571	Cu957	0.242300	0.757700	0.769080
Na9601	Na960	0.272500	0.727500	0.569900
Cu9611	Cu961	0.242300	0.242300	0.769080
Na9641	Na964	0.272500	0.272500	0.569900
Cu9651	Cu965	0.757700	0.757700	0.769080
Na9681	Na968	0.727500	0.727500	0.569900
