data_YEPDAZ_clean_PM
_symmetry_space_group_name_H-M	'P1'
_cell_length_a	15.188000
_cell_length_b	15.188000
_cell_length_c	15.188000
_cell_angle_alpha	90.000000
_cell_angle_beta	90.000000
_cell_angle_gamma	90.000000
_symmetry_Int_Tables_number 1

loop_
_symmetry_equiv_pos_as_xyz
'x,y,z'

loop_
_atom_site_label
_atom_site_type_symbol
_atom_site_fract_x
_atom_site_fract_y
_atom_site_fract_z
N11	N1	0.875900	0.953200	0.248800
N21	N2	0.833040	0.925500	0.176200
C11	C1	0.933800	0.010400	0.218400
H11	H1	0.973400	0.041000	0.253700
C21	C2	0.929000	0.019500	0.128800
H21	H2	0.963000	0.056000	0.093300
C31	C3	0.864300	0.964300	0.103200
H31	H3	0.845000	0.954800	0.045900
C41	C4	0.761200	0.865000	0.184200
C51	C5	0.753100	0.797400	0.124300
H41	H4	0.784000	0.794000	0.074000
N31	N3	0.624100	0.046800	0.748800
N41	N4	0.666960	0.074500	0.676200
C61	C6	0.566200	0.989600	0.718400
H51	H5	0.526600	0.959000	0.753700
C71	C7	0.571000	0.980500	0.628800
H61	H6	0.537000	0.944000	0.593300
C81	C8	0.635700	0.035700	0.603200
H71	H7	0.655000	0.045200	0.545900
C91	C9	0.738800	0.135000	0.684200
C101	C10	0.746900	0.202600	0.624300
H81	H8	0.716000	0.206000	0.574000
N51	N5	0.124100	0.453200	0.251200
N61	N6	0.166960	0.425500	0.323800
C111	C11	0.066200	0.510400	0.281600
H91	H9	0.026600	0.541000	0.246300
C121	C12	0.071000	0.519500	0.371200
H101	H10	0.037000	0.556000	0.406700
C131	C13	0.135700	0.464300	0.396800
H111	H11	0.155000	0.454800	0.454100
C141	C14	0.238800	0.365000	0.315800
C151	C15	0.246900	0.297400	0.375700
H121	H12	0.216000	0.294000	0.426000
N71	N7	0.375900	0.546800	0.751200
N81	N8	0.333040	0.574500	0.823800
C161	C16	0.433800	0.489600	0.781600
H131	H13	0.473400	0.459000	0.746300
C171	C17	0.429000	0.480500	0.871200
H141	H14	0.463000	0.444000	0.906700
C181	C18	0.364300	0.535700	0.896800
H151	H15	0.345000	0.545200	0.954100
C191	C19	0.261200	0.635000	0.815800
C201	C20	0.253100	0.702600	0.875700
H161	H16	0.284000	0.706000	0.926000
N91	N9	0.248800	0.875900	0.953200
N101	N10	0.176200	0.833040	0.925500
C211	C21	0.218400	0.933800	0.010400
H171	H17	0.253700	0.973400	0.041000
C221	C22	0.128800	0.929000	0.019500
H181	H18	0.093300	0.963000	0.056000
C231	C23	0.103200	0.864300	0.964300
H191	H19	0.045900	0.845000	0.954800
C241	C24	0.184200	0.761200	0.865000
C251	C25	0.124300	0.753100	0.797400
H201	H20	0.074000	0.784000	0.794000
N111	N11	0.748800	0.624100	0.046800
N121	N12	0.676200	0.666960	0.074500
C261	C26	0.718400	0.566200	0.989600
H211	H21	0.753700	0.526600	0.959000
C271	C27	0.628800	0.571000	0.980500
H221	H22	0.593300	0.537000	0.944000
C281	C28	0.603200	0.635700	0.035700
H231	H23	0.545900	0.655000	0.045200
C291	C29	0.684200	0.738800	0.135000
C301	C30	0.624300	0.746900	0.202600
H241	H24	0.574000	0.716000	0.206000
N131	N13	0.251200	0.124100	0.453200
N141	N14	0.323800	0.166960	0.425500
C311	C31	0.281600	0.066200	0.510400
H251	H25	0.246300	0.026600	0.541000
C321	C32	0.371200	0.071000	0.519500
H261	H26	0.406700	0.037000	0.556000
C331	C33	0.396800	0.135700	0.464300
H271	H27	0.454100	0.155000	0.454800
C341	C34	0.315800	0.238800	0.365000
C351	C35	0.375700	0.246900	0.297400
H281	H28	0.426000	0.216000	0.294000
N151	N15	0.751200	0.375900	0.546800
N161	N16	0.823800	0.333040	0.574500
C361	C36	0.781600	0.433800	0.489600
H291	H29	0.746300	0.473400	0.459000
C371	C37	0.871200	0.429000	0.480500
H301	H30	0.906700	0.463000	0.444000
C381	C38	0.896800	0.364300	0.535700
H311	H31	0.954100	0.345000	0.545200
C391	C39	0.815800	0.261200	0.635000
C401	C40	0.875700	0.253100	0.702600
H321	H32	0.926000	0.284000	0.706000
N171	N17	0.953200	0.248800	0.875900
N181	N18	0.925500	0.176200	0.833040
C411	C41	0.010400	0.218400	0.933800
H331	H33	0.041000	0.253700	0.973400
C421	C42	0.019500	0.128800	0.929000
H341	H34	0.056000	0.093300	0.963000
C431	C43	0.964300	0.103200	0.864300
H351	H35	0.954800	0.045900	0.845000
C441	C44	0.865000	0.184200	0.761200
C451	C45	0.797400	0.124300	0.753100
H361	H36	0.794000	0.074000	0.784000
N191	N19	0.046800	0.748800	0.624100
N201	N20	0.074500	0.676200	0.666960
C461	C46	0.989600	0.718400	0.566200
H371	H37	0.959000	0.753700	0.526600
C471	C47	0.980500	0.628800	0.571000
H381	H38	0.944000	0.593300	0.537000
C481	C48	0.035700	0.603200	0.635700
H391	H39	0.045200	0.545900	0.655000
C491	C49	0.135000	0.684200	0.738800
C501	C50	0.202600	0.624300	0.746900
H401	H40	0.206000	0.574000	0.716000
N211	N21	0.453200	0.251200	0.124100
N221	N22	0.425500	0.323800	0.166960
C511	C51	0.510400	0.281600	0.066200
H411	H41	0.541000	0.246300	0.026600
C521	C52	0.519500	0.371200	0.071000
H421	H42	0.556000	0.406700	0.037000
C531	C53	0.464300	0.396800	0.135700
H431	H43	0.454800	0.454100	0.155000
C541	C54	0.365000	0.315800	0.238800
C551	C55	0.297400	0.375700	0.246900
H441	H44	0.294000	0.426000	0.216000
N231	N23	0.546800	0.751200	0.375900
N241	N24	0.574500	0.823800	0.333040
C561	C56	0.489600	0.781600	0.433800
H451	H45	0.459000	0.746300	0.473400
C571	C57	0.480500	0.871200	0.429000
H461	H46	0.444000	0.906700	0.463000
C581	C58	0.535700	0.896800	0.364300
H471	H47	0.545200	0.954100	0.345000
C591	C59	0.635000	0.815800	0.261200
C601	C60	0.702600	0.875700	0.253100
H481	H48	0.706000	0.926000	0.284000
N251	N25	0.703200	0.125900	0.001200
N261	N26	0.675500	0.083040	0.073800
C611	C61	0.760400	0.183800	0.031600
H491	H49	0.791000	0.223400	0.996300
C621	C62	0.769500	0.179000	0.121200
H501	H50	0.806000	0.213000	0.156700
C631	C63	0.714300	0.114300	0.146800
H511	H51	0.704800	0.095000	0.204100
C641	C64	0.615000	0.011200	0.065800
C651	C65	0.547400	0.003100	0.125700
H521	H52	0.544000	0.034000	0.176000
N271	N27	0.796800	0.874100	0.501200
N281	N28	0.824500	0.916960	0.573800
C661	C66	0.739600	0.816200	0.531600
H531	H53	0.709000	0.776600	0.496300
C671	C67	0.730500	0.821000	0.621200
H541	H54	0.694000	0.787000	0.656700
C681	C68	0.785700	0.885700	0.646800
H551	H55	0.795200	0.905000	0.704100
C691	C69	0.885000	0.988800	0.565800
C701	C70	0.952600	0.996900	0.625700
H561	H56	0.956000	0.966000	0.676000
N291	N29	0.203200	0.374100	0.998800
N301	N30	0.175500	0.416960	0.926200
C711	C71	0.260400	0.316200	0.968400
H571	H57	0.291000	0.276600	0.003700
C721	C72	0.269500	0.321000	0.878800
H581	H58	0.306000	0.287000	0.843300
C731	C73	0.214300	0.385700	0.853200
H591	H59	0.204800	0.405000	0.795900
C741	C74	0.115000	0.488800	0.934200
C751	C75	0.047400	0.496900	0.874300
H601	H60	0.044000	0.466000	0.824000
N311	N31	0.296800	0.625900	0.498800
N321	N32	0.324500	0.583040	0.426200
C761	C76	0.239600	0.683800	0.468400
H611	H61	0.209000	0.723400	0.503700
C771	C77	0.230500	0.679000	0.378800
H621	H62	0.194000	0.713000	0.343300
C781	C78	0.285700	0.614300	0.353200
H631	H63	0.295200	0.595000	0.295900
C791	C79	0.385000	0.511200	0.434200
C801	C80	0.452600	0.503100	0.374300
H641	H64	0.456000	0.534000	0.324000
N331	N33	0.625900	0.498800	0.296800
N341	N34	0.583040	0.426200	0.324500
C811	C81	0.683800	0.468400	0.239600
H651	H65	0.723400	0.503700	0.209000
C821	C82	0.679000	0.378800	0.230500
H661	H66	0.713000	0.343300	0.194000
C831	C83	0.614300	0.353200	0.285700
H671	H67	0.595000	0.295900	0.295200
C841	C84	0.511200	0.434200	0.385000
C851	C85	0.503100	0.374300	0.452600
H681	H68	0.534000	0.324000	0.456000
N351	N35	0.374100	0.998800	0.203200
N361	N36	0.416960	0.926200	0.175500
C861	C86	0.316200	0.968400	0.260400
H691	H69	0.276600	0.003700	0.291000
C871	C87	0.321000	0.878800	0.269500
H701	H70	0.287000	0.843300	0.306000
C881	C88	0.385700	0.853200	0.214300
H711	H71	0.405000	0.795900	0.204800
C891	C89	0.488800	0.934200	0.115000
C901	C90	0.496900	0.874300	0.047400
H721	H72	0.466000	0.824000	0.044000
N371	N37	0.874100	0.501200	0.796800
N381	N38	0.916960	0.573800	0.824500
C911	C91	0.816200	0.531600	0.739600
H731	H73	0.776600	0.496300	0.709000
C921	C92	0.821000	0.621200	0.730500
H741	H74	0.787000	0.656700	0.694000
C931	C93	0.885700	0.646800	0.785700
H751	H75	0.905000	0.704100	0.795200
C941	C94	0.988800	0.565800	0.885000
C951	C95	0.996900	0.625700	0.952600
H761	H76	0.966000	0.676000	0.956000
N391	N39	0.125900	0.001200	0.703200
N401	N40	0.083040	0.073800	0.675500
C961	C96	0.183800	0.031600	0.760400
H771	H77	0.223400	0.996300	0.791000
C971	C97	0.179000	0.121200	0.769500
H781	H78	0.213000	0.156700	0.806000
C981	C98	0.114300	0.146800	0.714300
H791	H79	0.095000	0.204100	0.704800
C991	C99	0.011200	0.065800	0.615000
C1001	C100	0.003100	0.125700	0.547400
H801	H80	0.034000	0.176000	0.544000
N411	N41	0.998800	0.203200	0.374100
N421	N42	0.926200	0.175500	0.416960
C1011	C101	0.968400	0.260400	0.316200
H811	H81	0.003700	0.291000	0.276600
C1021	C102	0.878800	0.269500	0.321000
H821	H82	0.843300	0.306000	0.287000
C1031	C103	0.853200	0.214300	0.385700
H831	H83	0.795900	0.204800	0.405000
C1041	C104	0.934200	0.115000	0.488800
C1051	C105	0.874300	0.047400	0.496900
H841	H84	0.824000	0.044000	0.466000
N431	N43	0.498800	0.296800	0.625900
N441	N44	0.426200	0.324500	0.583040
C1061	C106	0.468400	0.239600	0.683800
H851	H85	0.503700	0.209000	0.723400
C1071	C107	0.378800	0.230500	0.679000
H861	H86	0.343300	0.194000	0.713000
C1081	C108	0.353200	0.285700	0.614300
H871	H87	0.295900	0.295200	0.595000
C1091	C109	0.434200	0.385000	0.511200
C1101	C110	0.374300	0.452600	0.503100
H881	H88	0.324000	0.456000	0.534000
N451	N45	0.001200	0.703200	0.125900
N461	N46	0.073800	0.675500	0.083040
C1111	C111	0.031600	0.760400	0.183800
H891	H89	0.996300	0.791000	0.223400
C1121	C112	0.121200	0.769500	0.179000
H901	H90	0.156700	0.806000	0.213000
C1131	C113	0.146800	0.714300	0.114300
H911	H91	0.204100	0.704800	0.095000
C1141	C114	0.065800	0.615000	0.011200
C1151	C115	0.125700	0.547400	0.003100
H921	H92	0.176000	0.544000	0.034000
N471	N47	0.501200	0.796800	0.874100
N481	N48	0.573800	0.824500	0.916960
C1161	C116	0.531600	0.739600	0.816200
H931	H93	0.496300	0.709000	0.776600
C1171	C117	0.621200	0.730500	0.821000
H941	H94	0.656700	0.694000	0.787000
C1181	C118	0.646800	0.785700	0.885700
H951	H95	0.704100	0.795200	0.905000
C1191	C119	0.565800	0.885000	0.988800
C1201	C120	0.625700	0.952600	0.996900
H961	H96	0.676000	0.956000	0.966000
Ag11	Ag1	0.870580	0.879420	0.375000
Ag21	Ag2	0.629420	0.120580	0.875000
Ag31	Ag3	0.129420	0.379420	0.125000
Ag41	Ag4	0.370580	0.620580	0.625000
Ag51	Ag5	0.375000	0.870580	0.879420
Ag61	Ag6	0.875000	0.629420	0.120580
Ag71	Ag7	0.125000	0.129420	0.379420
Ag81	Ag8	0.625000	0.370580	0.620580
Ag91	Ag9	0.879420	0.375000	0.870580
Ag101	Ag10	0.120580	0.875000	0.629420
Ag111	Ag11	0.379420	0.125000	0.129420
Ag121	Ag12	0.620580	0.625000	0.370580
