data_YEQRER_clean_PM
_symmetry_space_group_name_H-M	'P1'
_cell_length_a	8.851500
_cell_length_b	15.673300
_cell_length_c	17.945700
_cell_angle_alpha	105.459000
_cell_angle_beta	99.100000
_cell_angle_gamma	98.586000
_symmetry_Int_Tables_number 1

loop_
_symmetry_equiv_pos_as_xyz
'x,y,z'

loop_
_atom_site_label
_atom_site_type_symbol
_atom_site_fract_x
_atom_site_fract_y
_atom_site_fract_z
Yb11	Yb1	0.319630	0.168220	0.274520
Yb21	Yb2	0.680370	0.831780	0.725480
K11	K1	0.554300	0.706300	0.119100
K21	K2	0.445700	0.293700	0.880900
Pt11	Pt1	0.500000	0.000000	0.500000
Pt21	Pt2	0.500000	0.500000	0.500000
Pt31	Pt3	0.500000	0.000000	0.000000
Pt41	Pt4	0.000000	0.500000	0.000000
C11	C1	0.438000	0.062400	0.422100
C21	C2	0.686000	0.101300	0.548500
C31	C3	0.408000	0.375500	0.425600
C41	C4	0.329000	0.493000	0.557600
C51	C5	0.455000	0.062600	0.104100
C61	C6	0.595000	0.914600	0.048400
C71	C7	0.171000	0.605300	0.009200
C81	C8	0.879000	0.581400	0.058100
C91	C9	0.562000	0.937600	0.577900
C101	C10	0.314000	0.898700	0.451500
C111	C11	0.592000	0.624500	0.574400
C121	C12	0.671000	0.507000	0.442400
C131	C13	0.545000	0.937400	0.895900
C141	C14	0.405000	0.085400	0.951600
C151	C15	0.829000	0.394700	0.990800
C161	C16	0.121000	0.418600	0.941900
N11	N1	0.405000	0.101600	0.378500
N21	N2	0.791000	0.159600	0.575800
N31	N3	0.359800	0.305700	0.379600
N41	N4	0.232000	0.488800	0.594500
N51	N5	0.423100	0.096800	0.162200
N61	N6	0.647000	0.860900	0.075100
N71	N7	0.266000	0.664900	0.015400
N81	N8	0.808000	0.627300	0.090400
N91	N9	0.595000	0.898400	0.621500
N101	N10	0.209000	0.840400	0.424200
N111	N11	0.640200	0.694300	0.620400
N121	N12	0.768000	0.511200	0.405500
N131	N13	0.576900	0.903200	0.837800
N141	N14	0.353000	0.139100	0.924900
N151	N15	0.734000	0.335100	0.984600
N161	N16	0.192000	0.372700	0.909600
