data_YEVQUM_manual_PM
_symmetry_space_group_name_H-M	'P1'
_cell_length_a	45.564600
_cell_length_b	45.564600
_cell_length_c	45.564600
_cell_angle_alpha	94.942100
_cell_angle_beta	94.942100
_cell_angle_gamma	145.863000
_symmetry_Int_Tables_number 1

loop_
_symmetry_equiv_pos_as_xyz
'x,y,z'

loop_
_atom_site_label
_atom_site_type_symbol
_atom_site_fract_x
_atom_site_fract_y
_atom_site_fract_z
Ag11	Ag1	0.007570	0.524430	0.066140
Ag21	Ag2	0.028410	0.480580	0.021710
Ag31	Ag3	0.565180	0.581130	0.988270
Ag41	Ag4	0.097560	0.233290	0.334030
Ag51	Ag5	0.119340	0.188040	0.295980
Ag61	Ag6	0.990750	0.108430	0.278480
Ag71	Ag7	0.275950	0.014680	0.916930
Ag81	Ag8	0.224190	0.004220	0.850330
Ag91	Ag9	0.154200	0.947570	0.903470
Ag101	Ag10	0.468120	0.356270	0.662890
Ag111	Ag11	0.438280	0.271390	0.689350
Ag121	Ag12	0.366150	0.225510	0.614900
Ag131	Ag13	0.966150	0.352060	0.195650
Ag141	Ag14	0.852100	0.293140	0.178560
Ag151	Ag15	0.901080	0.318380	0.252520
Ag161	Ag16	0.877930	0.837730	0.153280
Ag171	Ag17	0.925880	0.853340	0.222760
Ag181	Ag18	0.822700	0.729000	0.172480
Ag191	Ag19	0.707460	0.535660	0.383240
Ag201	Ag20	0.786830	0.599480	0.336370
Ag211	Ag21	0.760880	0.644920	0.365260
Ag221	Ag22	0.602370	0.208660	0.231410
Ag231	Ag23	0.580710	0.253920	0.267310
Ag241	Ag24	0.713300	0.339700	0.282780
Ag251	Ag25	0.141170	0.835000	0.075910
Ag261	Ag26	0.251080	0.966960	0.112280
Ag271	Ag27	0.218620	0.878590	0.145470
Ag281	Ag28	0.515180	0.474880	0.494820
Ag291	Ag29	0.468180	0.477020	0.435120
Ag301	Ag30	0.385880	0.392730	0.479890
N11	N1	0.975480	0.457000	0.070280
N21	N2	0.987800	0.442500	0.054300
N31	N3	0.584300	0.577700	0.051600
N41	N4	0.608370	0.600380	0.028350
N51	N5	0.070760	0.620100	0.044060
N61	N6	0.047720	0.597200	0.067520
N71	N7	0.172000	0.275380	0.348380
N81	N8	0.181760	0.259050	0.331410
N91	N9	0.054710	0.111560	0.264670
N101	N10	0.003880	0.080240	0.255720
N111	N11	0.169320	0.476490	0.345010
N121	N12	0.195290	0.520250	0.335340
N131	N13	0.317290	0.045950	0.883840
N141	N14	0.296030	0.041970	0.857600
N151	N15	0.459590	0.118750	0.811740
N161	N16	0.434500	0.072530	0.815230
N171	N17	0.183600	0.952170	0.943170
N181	N18	0.233600	0.981200	0.949000
N191	N19	0.506450	0.382680	0.707930
N201	N20	0.495980	0.347750	0.718530
N211	N21	0.695460	0.534170	0.813030
N221	N22	0.674330	0.541760	0.823690
N231	N23	0.393470	0.284450	0.598120
N241	N24	0.434550	0.334500	0.617650
N251	N25	0.941280	0.346760	0.152840
N261	N26	0.891800	0.318610	0.145010
N271	N27	0.816280	0.280760	0.210840
N281	N28	0.836760	0.293590	0.241750
N291	N29	0.971770	0.353070	0.262640
N301	N30	0.996090	0.365510	0.239400
N311	N31	0.937220	0.912360	0.186180
N321	N32	0.958610	0.918890	0.213700
N331	N33	0.885520	0.787780	0.238500
N341	N34	0.845400	0.738000	0.217600
N351	N35	0.789940	0.716950	0.129490
N361	N36	0.808800	0.759480	0.123480
N371	N37	0.720740	0.505940	0.363280
N381	N38	0.750200	0.531020	0.342020
N391	N39	0.816110	0.660550	0.322060
N401	N40	0.803980	0.678390	0.332570
N411	N41	0.708160	0.602740	0.392300
N421	N42	0.688510	0.560570	0.399480
N431	N43	0.524000	0.159600	0.220800
N441	N44	0.517000	0.179970	0.235170
N451	N45	0.643470	0.330230	0.297300
N461	N46	0.696400	0.364980	0.304180
N471	N47	0.725610	0.311100	0.259110
N481	N48	0.680970	0.258530	0.241500
N491	N49	0.169460	0.888370	0.052430
N501	N50	0.211200	0.941900	0.067500
N511	N51	0.300050	0.995130	0.152580
N521	N52	0.291020	0.963180	0.166000
N531	N53	0.155080	0.798250	0.119330
N541	N54	0.122200	0.781700	0.093500
N551	N55	0.565690	0.525070	0.468560
N561	N56	0.545240	0.522660	0.442300
N571	N57	0.387290	0.422520	0.423810
N581	N58	0.355700	0.392270	0.442570
N591	N59	0.411050	0.382820	0.511670
N601	N60	0.462560	0.415770	0.517330
C11	C1	0.939800	0.442400	0.113400
C21	C2	0.954800	0.431500	0.091700
C31	C3	0.954500	0.401400	0.091900
C41	C4	0.973700	0.406500	0.066800
C51	C5	0.981800	0.383700	0.055300
C61	C6	0.608400	0.585000	0.104000
C71	C7	0.623000	0.601700	0.075900
C81	C8	0.673000	0.641100	0.069300
C91	C9	0.661300	0.638700	0.039200
C101	C10	0.698300	0.670000	0.018300
C111	C11	0.124500	0.701500	0.028400
C121	C12	0.094600	0.667500	0.049500
C131	C13	0.087300	0.675100	0.075800
C141	C14	0.058400	0.630400	0.086600
C151	C15	0.038100	0.616000	0.115100
C161	C16	0.215400	0.341980	0.394980
C171	C17	0.214570	0.315370	0.373940
C181	C18	0.252500	0.324590	0.374090
C191	C19	0.229180	0.287500	0.347080
C201	C20	0.250200	0.276600	0.334600
C211	C21	0.103900	0.106300	0.258600
C221	C22	0.053700	0.082280	0.252380
C231	C23	0.000810	0.030600	0.235410
C241	C24	0.970500	0.031100	0.237800
C251	C25	0.911500	0.988100	0.225000
C261	C26	0.079000	0.376900	0.333300
C271	C27	0.117200	0.430400	0.328000
C281	C28	0.108000	0.444410	0.307010
C291	C29	0.156180	0.499400	0.312180
C301	C30	0.170200	0.536600	0.297600
C311	C31	0.386900	0.069300	0.905200
C321	C32	0.356600	0.061400	0.880000
C331	C33	0.364300	0.070000	0.851700
C341	C34	0.325100	0.056800	0.837900
C351	C35	0.311700	0.056800	0.806700
C361	C36	0.458800	0.171600	0.823800
C371	C37	0.439800	0.125190	0.824590
C381	C38	0.399900	0.081940	0.836840
C391	C39	0.398900	0.050500	0.830600
C401	C40	0.361800	0.997800	0.837200
C411	C41	0.108200	0.894700	0.966500
C421	C42	0.163100	0.930800	0.966100
C431	C43	0.200400	0.945800	0.988400
C441	C44	0.244600	0.978500	0.975900
C451	C45	0.295400	0.004400	0.988800
C461	C46	0.570400	0.478400	0.723800
C471	C47	0.548240	0.430760	0.729000
C481	C48	0.565600	0.428200	0.753600
C491	C49	0.530700	0.374200	0.746100
C501	C50	0.528800	0.346700	0.762900
C511	C51	0.671200	0.476100	0.769100
C521	C52	0.658700	0.492100	0.787000
C531	C53	0.613300	0.472600	0.780300
C541	C54	0.624350	0.504600	0.804150
C551	C55	0.591200	0.502100	0.809300
C561	C56	0.333200	0.232900	0.545100
C571	C57	0.380700	0.284800	0.570100
C581	C58	0.417500	0.338800	0.572100
C591	C59	0.448900	0.367500	0.602600
C601	C60	0.494000	0.427400	0.617600
C611	C61	0.027700	0.415600	0.137500
C621	C62	0.970700	0.378600	0.133900
C631	C63	0.937500	0.369200	0.113100
C641	C64	0.888400	0.331300	0.120900
C651	C65	0.838300	0.306400	0.107700
C661	C66	0.758200	0.267100	0.177700
C671	C67	0.786300	0.279500	0.209000
C681	C68	0.784700	0.290800	0.237300
C691	C69	0.818610	0.300820	0.258030
C701	C70	0.834400	0.316500	0.292100
C711	C71	0.990800	0.369900	0.318500
C721	C72	0.007000	0.377700	0.289700
C731	C73	0.056080	0.407460	0.284140
C741	C74	0.046100	0.397800	0.253100
C751	C75	0.083400	0.419600	0.233800
C761	C76	0.933500	0.957400	0.163500
C771	C77	0.950400	0.952900	0.189700
C781	C78	0.979200	0.984400	0.220400
C791	C79	0.984100	0.962100	0.234200
C801	C80	0.008900	0.977100	0.267200
C811	C81	0.925600	0.831600	0.293600
C821	C82	0.883950	0.781110	0.265860
C831	C83	0.843600	0.727400	0.264600
C841	C84	0.818900	0.700500	0.233000
C851	C85	0.772200	0.641500	0.217500
C861	C86	0.709100	0.616600	0.111700
C871	C87	0.740000	0.669800	0.110400
C881	C88	0.726800	0.681500	0.091700
C891	C89	0.771000	0.737500	0.100900
C901	C90	0.780900	0.774300	0.089000
C911	C91	0.664600	0.424800	0.380800
C921	C92	0.699500	0.460300	0.361600
C931	C93	0.713600	0.454900	0.338300
C941	C94	0.745600	0.500600	0.327600
C951	C95	0.770400	0.515200	0.301400
C961	C96	0.847800	0.663100	0.280900
C971	C97	0.831600	0.676600	0.297200
C981	C98	0.830960	0.704400	0.290560
C991	C99	0.812500	0.704500	0.314000
C1001	C100	0.801100	0.726800	0.318300
C1011	C101	0.704100	0.652800	0.403900
C1021	C102	0.686700	0.607330	0.405830
C1031	C103	0.650770	0.567540	0.420310
C1041	C104	0.652990	0.538500	0.415890
C1051	C105	0.622300	0.488500	0.424800
C1061	C106	0.469900	0.075900	0.182200
C1071	C107	0.476000	0.109800	0.202200
C1081	C108	0.434800	0.096000	0.204200
C1091	C109	0.464000	0.142700	0.225900
C1101	C110	0.444000	0.154000	0.237800
C1111	C111	0.590500	0.330300	0.305200
C1121	C112	0.643200	0.357400	0.310000
C1131	C113	0.696000	0.410600	0.325400
C1141	C114	0.727700	0.413100	0.321000
C1151	C115	0.787400	0.458100	0.332500
C1161	C116	0.825000	0.388600	0.276200
C1171	C117	0.769800	0.330800	0.260800
C1181	C118	0.753600	0.290600	0.244000
C1191	C119	0.696900	0.245460	0.231960
C1201	C120	0.654500	0.188400	0.211500
C1211	C121	0.113300	0.827000	0.998900
C1221	C122	0.158600	0.882400	0.022400
C1231	C123	0.194000	0.931700	0.017700
C1241	C124	0.227700	0.969200	0.046300
C1251	C125	0.274600	0.029600	0.055600
C1261	C126	0.377100	0.092500	0.156600
C1271	C127	0.353600	0.047800	0.166000
C1281	C128	0.377200	0.047500	0.187100
C1291	C129	0.335800	0.993000	0.186400
C1301	C130	0.337800	0.968400	0.204000
C1311	C131	0.175900	0.769300	0.142800
C1321	C132	0.145300	0.761800	0.117700
C1331	C133	0.107500	0.721200	0.089900
C1341	C134	0.093400	0.735200	0.075600
C1351	C135	0.053300	0.706000	0.045500
C1361	C136	0.638500	0.550700	0.488800
C1371	C137	0.607400	0.543200	0.464400
C1381	C138	0.615080	0.553910	0.435790
C1391	C139	0.575500	0.540460	0.423360
C1401	C140	0.562100	0.542200	0.392900
C1411	C141	0.376500	0.426600	0.370500
C1421	C142	0.355200	0.403100	0.396900
C1431	C143	0.300760	0.359160	0.398920
C1441	C144	0.304600	0.355000	0.428200
C1451	C145	0.259600	0.314400	0.443200
C1461	C146	0.330300	0.310300	0.530200
C1471	C147	0.386600	0.349300	0.529900
C1481	C148	0.424000	0.361900	0.547900
C1491	C149	0.470400	0.403650	0.539250
C1501	C150	0.524600	0.433400	0.549000
H11	H1	0.945100	0.466400	0.107100
H21	H2	0.963000	0.460100	0.134300
H31	H3	0.901600	0.407900	0.112900
H41	H4	0.996800	0.396800	0.037800
H51	H5	0.946800	0.343800	0.048600
H61	H6	0.007300	0.395000	0.071500
H71	H7	0.569300	0.555600	0.100700
H81	H8	0.629100	0.616300	0.120800
H91	H9	0.617100	0.572100	0.109600
H101	H10	0.677200	0.658400	0.998200
H111	H11	0.712800	0.662400	0.015600
H121	H12	0.728300	0.709000	0.027300
H131	H13	0.121600	0.683400	0.011800
H141	H14	0.162900	0.736900	0.039600
H151	H15	0.108900	0.706600	0.019700
H161	H16	0.018900	0.581700	0.116000
H171	H17	0.013300	0.611900	0.114200
H181	H18	0.069300	0.645200	0.133500
H191	H19	0.182000	0.325400	0.387600
H201	H20	0.247200	0.380800	0.396200
H211	H21	0.217600	0.337800	0.415400
H221	H22	0.224900	0.248600	0.314900
H231	H23	0.253000	0.264000	0.349200
H241	H24	0.286100	0.310200	0.331900
H251	H25	0.134700	0.144000	0.271700
H261	H26	0.111500	0.106100	0.239200
H271	H27	0.098900	0.085000	0.269100
H281	H28	0.904200	0.002500	0.231100
H291	H29	0.889700	0.956600	0.232700
H301	H30	0.901400	0.976600	0.202400
H311	H31	0.098400	0.380900	0.349500
H321	H32	0.063400	0.351400	0.314400
H331	H33	0.049700	0.363000	0.339700
H341	H34	0.208700	0.574000	0.306700
H351	H35	0.147700	0.534700	0.301000
H361	H36	0.163300	0.525600	0.275500
H371	H37	0.371500	0.059700	0.922600
H381	H38	0.384000	0.045900	0.897900
H391	H39	0.425300	0.107500	0.911600
H401	H40	0.281700	0.045700	0.804400
H411	H41	0.343900	0.093500	0.804200
H421	H42	0.300900	0.031200	0.790900
H431	H43	0.487300	0.195000	0.813300
H441	H44	0.428100	0.157600	0.812900
H451	H45	0.473500	0.192800	0.844900
H461	H46	0.370900	0.985500	0.830400
H471	H47	0.365900	0.002600	0.859300
H481	H48	0.323900	0.970400	0.826100
H491	H49	0.091800	0.891300	0.948300
H501	H50	0.085600	0.858500	0.966500
H511	H51	0.110600	0.909900	0.984900
H521	H52	0.318900	0.024300	0.975200
H531	H53	0.314700	0.029800	0.009100
H541	H54	0.286000	0.976100	0.990700
H551	H55	0.548700	0.466700	0.704200
H561	H56	0.568500	0.491500	0.740400
H571	H57	0.608400	0.507800	0.723600
H581	H58	0.499000	0.308600	0.751000
H591	H59	0.563500	0.365100	0.766200
H601	H60	0.523000	0.348200	0.782800
H611	H61	0.706600	0.497800	0.780000
H621	H62	0.642900	0.437400	0.766500
H631	H63	0.672600	0.482500	0.748900
H641	H64	0.610900	0.530500	0.828000
H651	H65	0.583800	0.507800	0.791800
H661	H66	0.556700	0.466200	0.811700
H671	H67	0.317000	0.203000	0.552200
H681	H68	0.306000	0.225600	0.539400
H691	H69	0.345300	0.236000	0.527100
H701	H70	0.509000	0.436500	0.639300
H711	H71	0.522800	0.449300	0.607300
H721	H72	0.479300	0.435100	0.616000
H731	H73	0.037800	0.411000	0.154200
H741	H74	0.052900	0.453500	0.142400
H751	H75	0.029900	0.406600	0.118300
H761	H76	0.811700	0.281400	0.119100
H771	H77	0.822600	0.286300	0.086100
H781	H78	0.847600	0.335200	0.109200
H791	H79	0.765400	0.259400	0.161400
H801	H80	0.772300	0.298500	0.176600
H811	H81	0.718800	0.235100	0.174900
H821	H82	0.858200	0.320000	0.299600
H831	H83	0.801500	0.288300	0.299000
H841	H84	0.853700	0.351300	0.300000
H851	H85	0.953700	0.346800	0.313700
H861	H86	0.016100	0.405300	0.332600
H871	H87	0.991600	0.352200	0.328200
H881	H88	0.064200	0.405100	0.212100
H891	H89	0.094500	0.408500	0.237000
H901	H90	0.115700	0.459400	0.239700
H911	H91	0.913700	0.928700	0.145000
H921	H92	0.965900	0.993100	0.160000
H931	H93	0.909800	0.953300	0.168100
H941	H94	0.005400	0.953100	0.269500
H951	H95	0.990100	0.972900	0.280200
H961	H96	0.047600	0.015000	0.273400
H971	H97	0.948900	0.863900	0.286400
H981	H98	0.948100	0.835700	0.305800
H991	H99	0.906500	0.827400	0.306300
H1001	H100	0.764800	0.635400	0.195200
H1011	H101	0.739900	0.621300	0.223600
H1021	H102	0.781000	0.628700	0.223500
H1031	H103	0.730800	0.623200	0.127800
H1041	H104	0.701300	0.598300	0.091800
H1051	H105	0.674600	0.593200	0.116000
H1061	H106	0.817000	0.812300	0.100500
H1071	H107	0.753000	0.765300	0.091500
H1081	H108	0.779000	0.769200	0.067200
H1091	H109	0.662900	0.440800	0.394700
H1101	H110	0.627900	0.388900	0.367800
H1111	H111	0.679900	0.421000	0.392900
H1121	H112	0.791100	0.549900	0.299600
H1131	H113	0.794900	0.518900	0.305400
H1141	H114	0.741500	0.486600	0.282300
H1151	H115	0.844500	0.643100	0.291800
H1161	H116	0.823700	0.640400	0.259900
H1171	H117	0.885500	0.696800	0.280300
H1181	H118	0.789000	0.720600	0.336800
H1191	H119	0.834400	0.766000	0.320400
H1201	H120	0.772500	0.708500	0.300400
H1211	H121	0.730000	0.674200	0.391600
H1221	H122	0.672100	0.637500	0.394200
H1231	H123	0.721500	0.676500	0.424600
H1241	H124	0.634100	0.479200	0.417500
H1251	H125	0.629600	0.495900	0.447100
H1261	H126	0.583000	0.457800	0.415200
H1271	H127	0.505500	0.096100	0.185600
H1281	H128	0.444400	0.041600	0.187600
H1291	H129	0.455800	0.068000	0.160600
H1301	H130	0.474700	0.190700	0.252200
H1311	H131	0.427200	0.151900	0.220700
H1321	H132	0.416900	0.127100	0.248400
H1331	H133	0.559900	0.292000	0.293500
H1341	H134	0.585300	0.332700	0.325200
H1351	H135	0.592300	0.348900	0.293800
H1361	H136	0.796200	0.445800	0.325000
H1371	H137	0.807000	0.489300	0.325100
H1381	H138	0.798500	0.469100	0.355000
H1391	H139	0.822600	0.406300	0.286100
H1401	H140	0.843900	0.391300	0.291600
H1411	H141	0.845300	0.406600	0.260900
H1421	H142	0.618300	0.166900	0.208000
H1431	H143	0.662600	0.190700	0.191900
H1441	H144	0.655200	0.170900	0.221700
H1451	H145	0.094900	0.799100	0.009400
H1461	H146	0.128800	0.827700	0.984700
H1471	H147	0.086900	0.818600	0.987300
H1481	H148	0.289000	0.043600	0.078000
H1491	H149	0.262300	0.038600	0.048300
H1501	H150	0.303300	0.046300	0.046600
H1511	H151	0.349200	0.078400	0.140800
H1521	H152	0.407100	0.111000	0.148300
H1531	H153	0.391000	0.118400	0.174400
H1541	H154	0.301600	0.928700	0.198100
H1551	H155	0.348400	0.983400	0.226000
H1561	H156	0.364400	0.976600	0.199200
H1571	H157	0.200000	0.802200	0.159200
H1581	H158	0.197800	0.772900	0.134500
H1591	H159	0.150000	0.737600	0.150800
H1601	H160	0.052800	0.726500	0.041700
H1611	H161	0.017000	0.669600	0.046000
H1621	H162	0.063800	0.702900	0.029100
H1631	H163	0.623000	0.539900	0.506300
H1641	H164	0.676800	0.589100	0.495700
H1651	H165	0.636200	0.528000	0.480600
H1661	H166	0.531200	0.529800	0.391200
H1671	H167	0.552300	0.518200	0.376300
H1681	H168	0.593700	0.579500	0.391200
H1691	H169	0.416000	0.457100	0.376300
H1701	H170	0.367800	0.439500	0.365100
H1711	H171	0.359400	0.398500	0.352900
H1721	H172	0.275300	0.322100	0.464200
H1731	H173	0.233700	0.277500	0.431400
H1741	H174	0.240700	0.317400	0.443700
H1751	H175	0.315300	0.311300	0.514400
H1761	H176	0.331000	0.320500	0.550500
H1771	H177	0.307600	0.273500	0.526100
H1781	H178	0.549400	0.461300	0.538300
H1791	H179	0.518900	0.407400	0.544100
H1801	H180	0.540700	0.451000	0.571300
Ag311	Ag31	0.958290	0.941430	0.433860
Ag321	Ag32	0.958870	0.006700	0.478290
Ag331	Ag33	0.092860	0.576910	0.511730
Ag341	Ag34	0.399260	0.763530	0.165970
Ag351	Ag35	0.392060	0.823360	0.204020
Ag361	Ag36	0.329950	0.712270	0.221520
Ag371	Ag37	0.597750	0.359020	0.583070
Ag381	Ag38	0.653890	0.373860	0.649670
Ag391	Ag39	0.544100	0.250730	0.596530
Ag401	Ag40	0.193380	0.805230	0.837110
Ag411	Ag41	0.082040	0.748930	0.810650
Ag421	Ag42	0.110610	0.751250	0.885100
Ag431	Ag43	0.656410	0.770500	0.304350
Ag441	Ag44	0.614580	0.673540	0.321440
Ag451	Ag45	0.565860	0.648560	0.247480
Ag461	Ag46	0.184450	0.724650	0.346720
Ag471	Ag47	0.130580	0.703120	0.277240
Ag481	Ag48	0.056520	0.650220	0.327520
Ag491	Ag49	0.652420	0.324220	0.116760
Ag501	Ag50	0.763110	0.450460	0.163630
Ag511	Ag51	0.779660	0.395620	0.134740
Ag521	Ag52	0.477250	0.370960	0.268590
Ag531	Ag53	0.486610	0.313400	0.232690
Ag541	Ag54	0.556920	0.430520	0.217220
Ag551	Ag55	0.259090	0.065260	0.424090
Ag561	Ag56	0.354680	0.138800	0.387720
Ag571	Ag57	0.233120	0.073150	0.354530
Ag581	Ag58	0.480060	0.020360	0.005180
Ag591	Ag59	0.541900	0.033060	0.064880
Ag601	Ag60	0.412840	0.905990	0.020110
N611	N61	0.886720	0.905200	0.429720
N621	N62	0.888200	0.933500	0.445700
N631	N63	0.026100	0.532700	0.448400
N641	N64	0.072030	0.580020	0.471650
N651	N65	0.076040	0.026700	0.455940
N661	N66	0.029680	0.980200	0.432480
N671	N67	0.427000	0.823620	0.151620
N681	N68	0.427640	0.850350	0.168590
N691	N69	0.346890	0.790040	0.235330
N701	N70	0.324520	0.748160	0.244280
N711	N71	0.631480	0.824310	0.154990
N721	N72	0.684910	0.859950	0.164660
N731	N73	0.662110	0.433450	0.616160
N741	N74	0.684370	0.438430	0.642400
N751	N75	0.807010	0.647850	0.688260
N761	N76	0.757300	0.619270	0.684770
N771	N77	0.509000	0.240430	0.556830
N781	N78	0.532200	0.284600	0.551000
N791	N79	0.174750	0.798520	0.792070
N801	N80	0.129220	0.777450	0.781470
N811	N81	0.221140	0.882430	0.686970
N821	N82	0.218070	0.850640	0.676310
N831	N83	0.186330	0.795350	0.901880
N841	N84	0.216850	0.816900	0.882350
N851	N85	0.693920	0.788440	0.347160
N861	N86	0.673600	0.746790	0.354990
N871	N87	0.569920	0.605440	0.289160
N881	N88	0.551840	0.595010	0.258250
N891	N89	0.590430	0.709130	0.237360
N901	N90	0.626110	0.756690	0.260600
N911	N91	0.226180	0.751040	0.313820
N921	N92	0.205190	0.744910	0.286300
N931	N93	0.049280	0.647020	0.261500
N941	N94	0.020400	0.627800	0.282400
N951	N95	0.087460	0.660450	0.370510
N961	N96	0.136000	0.685320	0.376520
N971	N97	0.642660	0.357460	0.136720
N981	N98	0.689000	0.408180	0.157980
N991	N99	0.838490	0.494050	0.177940
N1001	N100	0.845820	0.471410	0.167430
N1011	N101	0.710440	0.315860	0.107700
N1021	N102	0.661090	0.289030	0.100520
N1031	N103	0.438800	0.303200	0.279200
N1041	N104	0.444800	0.281830	0.264830
N1051	N105	0.532930	0.346170	0.202700
N1061	N106	0.560800	0.392220	0.195820
N1071	N107	0.551990	0.466500	0.240890
N1081	N108	0.517030	0.439470	0.258500
N1091	N109	0.335940	0.117030	0.447570
N1101	N110	0.374400	0.143700	0.432500
N1111	N111	0.342550	0.147470	0.347420
N1121	N112	0.297180	0.125020	0.334000
N1131	N113	0.178920	0.035750	0.380670
N1141	N114	0.188200	0.028700	0.406500
N1151	N115	0.556510	0.097130	0.031440
N1161	N116	0.580360	0.102940	0.057700
N1171	N117	0.498710	0.963480	0.076190
N1181	N118	0.449700	0.913130	0.057430
N1191	N119	0.371150	0.899380	0.988330
N1201	N120	0.398440	0.945230	0.982670
C1511	C151	0.829000	0.826400	0.386600
C1521	C152	0.839800	0.863100	0.408300
C1531	C153	0.809500	0.862600	0.408100
C1541	C154	0.839700	0.906900	0.433200
C1551	C155	0.828400	0.926500	0.444700
C1561	C156	0.981000	0.504400	0.396000
C1571	C157	0.025800	0.547100	0.424100
C1581	C158	0.071800	0.603700	0.430700
C1591	C159	0.099500	0.622100	0.460800
C1601	C160	0.151700	0.680000	0.481700
C1611	C161	0.173100	0.096100	0.471600
C1621	C162	0.118000	0.045100	0.450500
C1631	C163	0.099300	0.011500	0.424200
C1641	C164	0.043800	0.971800	0.413400
C1651	C165	0.000900	0.923000	0.384900
C1661	C166	0.447000	0.820420	0.105020
C1671	C167	0.441430	0.840630	0.126060
C1681	C168	0.450500	0.878410	0.125910
C1691	C169	0.440420	0.882100	0.152920
C1701	C170	0.442000	0.915600	0.165400
C1711	C171	0.347700	0.845300	0.241400
C1721	C172	0.329900	0.801320	0.247620
C1731	C173	0.295190	0.765400	0.264590
C1741	C174	0.293300	0.732700	0.262200
C1751	C175	0.263100	0.686500	0.275000
C1761	C176	0.543600	0.745700	0.166700
C1771	C177	0.602400	0.789200	0.172000
C1781	C178	0.637400	0.800990	0.192990
C1791	C179	0.687220	0.844000	0.187820
C1801	C180	0.739000	0.872600	0.202400
C1811	C181	0.664100	0.481700	0.594800
C1821	C182	0.681400	0.476600	0.620000
C1831	C183	0.718300	0.512600	0.648300
C1841	C184	0.718900	0.487200	0.662100
C1851	C185	0.750100	0.505000	0.693300
C1861	C186	0.847800	0.635000	0.676200
C1871	C187	0.800600	0.615210	0.675410
C1881	C188	0.745100	0.563060	0.663160
C1891	C189	0.719900	0.568300	0.669400
C1901	C190	0.660600	0.524600	0.662800
C1911	C191	0.428200	0.141700	0.533500
C1921	C192	0.464700	0.197000	0.533900
C1931	C193	0.457400	0.212000	0.511600
C1941	C194	0.502600	0.268700	0.524100
C1951	C195	0.515600	0.306600	0.511200
C1961	C196	0.254600	0.846600	0.776200
C1971	C197	0.201760	0.819240	0.771000
C1981	C198	0.174600	0.812000	0.746400
C1991	C199	0.128100	0.784600	0.753900
C2001	C200	0.083800	0.765900	0.737100
C2011	C201	0.207000	0.902100	0.730900
C2021	C202	0.205100	0.871700	0.713000
C2031	C203	0.192300	0.833000	0.719700
C2041	C204	0.200450	0.820200	0.695850
C2051	C205	0.192800	0.781900	0.690700
C2061	C206	0.187800	0.788100	0.954900
C2071	C207	0.214700	0.810600	0.929900
C2081	C208	0.266700	0.845400	0.927900
C2091	C209	0.264900	0.846300	0.897400
C2101	C210	0.309800	0.876400	0.882400
C2111	C211	0.778100	0.890200	0.362500
C2121	C212	0.744700	0.836800	0.366100
C2131	C213	0.756100	0.824400	0.386900
C2141	C214	0.710400	0.767500	0.379100
C2151	C215	0.698700	0.730600	0.392300
C2161	C216	0.589400	0.580500	0.322300
C2171	C217	0.570500	0.577300	0.291000
C2181	C218	0.553500	0.547400	0.262700
C2191	C219	0.542790	0.560580	0.241970
C2201	C220	0.524400	0.542300	0.207900
C2211	C221	0.551400	0.672300	0.181500
C2221	C222	0.588000	0.717300	0.210300
C2231	C223	0.623320	0.771940	0.215860
C2241	C224	0.644700	0.793000	0.246900
C2251	C225	0.685800	0.849600	0.266200
C2261	C226	0.293900	0.770000	0.336500
C2271	C227	0.263200	0.760700	0.310300
C2281	C228	0.264000	0.758800	0.279600
C2291	C229	0.227900	0.749900	0.265800
C2301	C230	0.209900	0.741700	0.232800
C2311	C231	0.038000	0.632000	0.206400
C2321	C232	0.015250	0.618090	0.234140
C2331	C233	0.962800	0.579000	0.235400
C2341	C234	0.967500	0.585900	0.267000
C2351	C235	0.924000	0.554700	0.282500
C2361	C236	0.004900	0.597400	0.388300
C2371	C237	0.059400	0.629600	0.389600
C2381	C238	0.089800	0.635100	0.408300
C2391	C239	0.136600	0.670100	0.399100
C2401	C240	0.185300	0.691900	0.411000
C2411	C241	0.544000	0.283800	0.119200
C2421	C242	0.598700	0.337900	0.138400
C2431	C243	0.616600	0.375300	0.161700
C2441	C244	0.673000	0.418000	0.172400
C2451	C245	0.713800	0.469000	0.198600
C2461	C246	0.882200	0.566900	0.219100
C2471	C247	0.879400	0.534400	0.202800
C2481	C248	0.913840	0.540400	0.209440
C2491	C249	0.890500	0.498500	0.186000
C2501	C250	0.908500	0.482800	0.181700
C2511	C251	0.748900	0.300200	0.096100
C2521	C252	0.701500	0.280870	0.094170
C2531	C253	0.647230	0.230460	0.079690
C2541	C254	0.622610	0.237100	0.084110
C2551	C255	0.563700	0.197500	0.075200
C2561	C256	0.393700	0.287700	0.317800
C2571	C257	0.407600	0.273800	0.297800
C2581	C258	0.391800	0.230600	0.295800
C2591	C259	0.416800	0.238100	0.274100
C2601	C260	0.416200	0.206200	0.262200
C2611	C261	0.525100	0.285300	0.194800
C2621	C262	0.547400	0.333200	0.190000
C2631	C263	0.585200	0.370600	0.174600
C2641	C264	0.592100	0.406700	0.179000
C2651	C265	0.625600	0.454900	0.167500
C2661	C266	0.612400	0.548800	0.223800
C2671	C267	0.570000	0.509000	0.239200
C2681	C268	0.546600	0.509600	0.256000
C2691	C269	0.513500	0.464940	0.268040
C2701	C270	0.476900	0.443000	0.288500
C2711	C271	0.328100	0.114400	0.501100
C2721	C272	0.360000	0.136200	0.477600
C2731	C273	0.414000	0.176300	0.482300
C2741	C274	0.422900	0.181400	0.453700
C2751	C275	0.474000	0.219000	0.444400
C2761	C276	0.435900	0.220500	0.343400
C2771	C277	0.381800	0.187600	0.334000
C2781	C278	0.360400	0.190100	0.312900
C2791	C279	0.306600	0.149400	0.313600
C2801	C280	0.264400	0.133800	0.296000
C2811	C281	0.126500	0.033100	0.357200
C2821	C282	0.144100	0.027600	0.382300
C2831	C283	0.131300	0.017600	0.410100
C2841	C284	0.159600	0.017800	0.424400
C2851	C285	0.160500	0.007800	0.454500
C2861	C286	0.561900	0.149700	0.011200
C2871	C287	0.578800	0.143000	0.035600
C2881	C288	0.618120	0.179290	0.064210
C2891	C289	0.617100	0.152140	0.076640
C2901	C290	0.649300	0.169200	0.107100
C2911	C291	0.556100	0.006000	0.129500
C2921	C292	0.506200	0.958300	0.103100
C2931	C293	0.460240	0.901840	0.101080
C2941	C294	0.426800	0.876400	0.071800
C2951	C295	0.371200	0.816400	0.056800
C2961	C296	0.280100	0.800100	0.969800
C2971	C297	0.319400	0.856700	0.970100
C2981	C298	0.314000	0.876100	0.952100
C2991	C299	0.364400	0.931150	0.960750
C3001	C300	0.384400	0.975600	0.951000
H1811	H181	0.859300	0.838000	0.392900
H1821	H182	0.825800	0.828700	0.365700
H1831	H183	0.795000	0.788700	0.387100
H1841	H184	0.859000	0.959000	0.462200
H1851	H185	0.795200	0.898200	0.451400
H1861	H186	0.823500	0.935800	0.428500
H1871	H187	0.954900	0.468600	0.399300
H1881	H188	0.995500	0.508300	0.379200
H1891	H189	0.962500	0.507500	0.390400
H1901	H190	0.160200	0.679000	0.501800
H1911	H191	0.146800	0.697200	0.484400
H1921	H192	0.181700	0.701000	0.472700
H1931	H193	0.171600	0.109800	0.488200
H1941	H194	0.197300	0.123300	0.460400
H1951	H195	0.186900	0.089200	0.480300
H1961	H196	0.965700	0.902900	0.384000
H1971	H197	0.997700	0.899100	0.385800
H1981	H198	0.011700	0.935800	0.366500
H1991	H199	0.437800	0.794400	0.112400
H2001	H200	0.484600	0.851000	0.103800
H2011	H201	0.422400	0.802200	0.084600
H2021	H202	0.433700	0.910000	0.185100
H2031	H203	0.414800	0.903800	0.150800
H2041	H204	0.478300	0.954200	0.168100
H2051	H205	0.372300	0.863000	0.228300
H2061	H206	0.366900	0.872300	0.260800
H2071	H207	0.315900	0.829800	0.230900
H2081	H208	0.271400	0.673100	0.268900
H2091	H209	0.223900	0.657000	0.267300
H2101	H210	0.274200	0.699000	0.297600
H2111	H211	0.531400	0.748900	0.150500
H2121	H212	0.537000	0.749000	0.185600
H2131	H213	0.523300	0.710000	0.160300
H2141	H214	0.767300	0.902000	0.193300
H2151	H215	0.733700	0.846700	0.199000
H2161	H216	0.750100	0.887800	0.224500
H2171	H217	0.637100	0.448900	0.577400
H2181	H218	0.648000	0.486100	0.602100
H2191	H219	0.695900	0.513700	0.588400
H2201	H220	0.741300	0.477300	0.695600
H2211	H221	0.789300	0.539700	0.695800
H2221	H222	0.740300	0.510000	0.709100
H2231	H223	0.881700	0.674000	0.686700
H2241	H224	0.844700	0.615200	0.687100
H2251	H225	0.847900	0.628600	0.655100
H2261	H226	0.655100	0.540500	0.669600
H2271	H227	0.643300	0.506600	0.640700
H2281	H228	0.644300	0.497800	0.673900
H2291	H229	0.443000	0.143500	0.551700
H2301	H230	0.392000	0.119100	0.533500
H2311	H231	0.425000	0.125700	0.515100
H2321	H232	0.549100	0.343700	0.524800
H2331	H233	0.520700	0.305600	0.490900
H2341	H234	0.485400	0.295300	0.509300
H2351	H235	0.262500	0.844500	0.795800
H2361	H236	0.251100	0.828100	0.759600
H2371	H237	0.284200	0.884800	0.776400
H2381	H238	0.057600	0.748000	0.749000
H2391	H239	0.098900	0.797300	0.733800
H2401	H240	0.065400	0.740200	0.717200
H2411	H241	0.217800	0.926600	0.720000
H2421	H242	0.170900	0.876400	0.733500
H2431	H243	0.233600	0.923700	0.751100
H2441	H244	0.202500	0.782900	0.672000
H2451	H245	0.216000	0.792000	0.708200
H2461	H246	0.154500	0.745000	0.688300
H2471	H247	0.150800	0.764800	0.947800
H2481	H248	0.186200	0.766600	0.960600
H2491	H249	0.208900	0.818200	0.972900
H2501	H250	0.297200	0.869700	0.860700
H2511	H251	0.342000	0.915500	0.892700
H2521	H252	0.319100	0.863300	0.884000
H2531	H253	0.756800	0.883600	0.345800
H2541	H254	0.811100	0.910500	0.357600
H2551	H255	0.788300	0.911600	0.381700
H2561	H256	0.662300	0.692600	0.380900
H2571	H257	0.700200	0.736500	0.413900
H2581	H258	0.726000	0.738400	0.390800
H2591	H259	0.598000	0.604000	0.338600
H2601	H260	0.621900	0.595700	0.323400
H2611	H261	0.560200	0.543900	0.325100
H2621	H262	0.520400	0.558600	0.200400
H2631	H263	0.489300	0.502500	0.201000
H2641	H264	0.551300	0.553700	0.200000
H2651	H265	0.533100	0.640000	0.186300
H2661	H266	0.572700	0.683500	0.167400
H2671	H267	0.524000	0.663400	0.171800
H2681	H268	0.693000	0.852100	0.287900
H2691	H269	0.671500	0.857500	0.263000
H2701	H270	0.719700	0.876000	0.260300
H2711	H271	0.283700	0.768700	0.355000
H2721	H272	0.333100	0.805900	0.340000
H2731	H273	0.285200	0.741700	0.331900
H2741	H274	0.183600	0.735900	0.230500
H2751	H275	0.192700	0.709900	0.219800
H2761	H276	0.241600	0.774200	0.226600
H2771	H277	0.077500	0.662500	0.213600
H2781	H278	0.029900	0.642300	0.194200
H2791	H279	0.021100	0.600200	0.193700
H2801	H280	0.940200	0.569600	0.304800
H2811	H281	0.897700	0.516300	0.276400
H2821	H282	0.905200	0.557500	0.276500
H2831	H283	0.995400	0.603000	0.372200
H2841	H284	0.006500	0.609500	0.408200
H2851	H285	0.977200	0.558600	0.384000
H2861	H286	0.211800	0.716500	0.399500
H2871	H287	0.173800	0.661500	0.408500
H2881	H288	0.202000	0.711800	0.432800
H2891	H289	0.546100	0.268200	0.105300
H2901	H290	0.521100	0.260100	0.132200
H2911	H291	0.528100	0.287000	0.107100
H2921	H292	0.750300	0.491500	0.200400
H2931	H293	0.713500	0.489500	0.194600
H2941	H294	0.704300	0.459200	0.217700
H2951	H295	0.851300	0.552700	0.208200
H2961	H296	0.880500	0.563800	0.240100
H2971	H297	0.916500	0.605200	0.219700
H2981	H298	0.883800	0.452200	0.163200
H2991	H299	0.945600	0.514000	0.179600
H3001	H300	0.908100	0.472100	0.199600
H3011	H301	0.782600	0.338400	0.108400
H3021	H302	0.743300	0.277900	0.105800
H3031	H303	0.751900	0.296900	0.075400
H3041	H304	0.561700	0.216600	0.082500
H3051	H305	0.548800	0.182500	0.052900
H3061	H306	0.542600	0.167800	0.084800
H3071	H307	0.410500	0.319900	0.314400
H3081	H308	0.354000	0.256800	0.312400
H3091	H309	0.407400	0.295200	0.339400
H3101	H310	0.438500	0.222500	0.247800
H3111	H311	0.431200	0.206500	0.279300
H3121	H312	0.378700	0.168500	0.251600
H3131	H313	0.498500	0.266400	0.206500
H3141	H314	0.507500	0.260100	0.174800
H3151	H315	0.555100	0.298500	0.206200
H3161	H316	0.620800	0.471200	0.175000
H3171	H317	0.664200	0.481900	0.174900
H3181	H318	0.614100	0.443500	0.145000
H3191	H319	0.620200	0.536500	0.213900
H3201	H320	0.599700	0.552300	0.208400
H3211	H321	0.645700	0.584400	0.239100
H3221	H322	0.458900	0.410300	0.292000
H3231	H323	0.498800	0.470700	0.308100
H3241	H324	0.449200	0.433500	0.278300
H3251	H325	0.289700	0.085500	0.490600
H3261	H326	0.343000	0.144100	0.515300
H3271	H327	0.331300	0.099600	0.512700
H3281	H328	0.465600	0.211000	0.422000
H3291	H329	0.490300	0.214000	0.451700
H3301	H330	0.499700	0.256700	0.453400
H3311	H331	0.437600	0.208400	0.359200
H3321	H332	0.462700	0.258800	0.351700
H3331	H333	0.444000	0.216600	0.325600
H3341	H334	0.230600	0.103500	0.301900
H3351	H335	0.257400	0.122400	0.274000
H3361	H336	0.277400	0.165200	0.300800
H3371	H337	0.143000	0.040800	0.340800
H3381	H338	0.138400	0.063300	0.365500
H3391	H339	0.086800	0.999200	0.349200
H3401	H340	0.184800	0.011100	0.458300
H3411	H341	0.123600	0.971000	0.454000
H3421	H342	0.173800	0.034700	0.470900
H3431	H343	0.533600	0.116700	0.993700
H3441	H344	0.593400	0.181100	0.004300
H3451	H345	0.547400	0.155600	0.019400
H3461	H346	0.638600	0.140000	0.108800
H3471	H347	0.641900	0.176000	0.123700
H3481	H348	0.688300	0.202500	0.108800
H3491	H349	0.580800	0.039700	0.123700
H3501	H350	0.574400	0.002700	0.134900
H3511	H351	0.545600	0.006500	0.147100
H3521	H352	0.357900	0.811100	0.035800
H3531	H353	0.346100	0.802300	0.068600
H3541	H354	0.373700	0.797000	0.056300
H3551	H355	0.296900	0.800900	0.985600
H3561	H356	0.270000	0.780500	0.949500
H3571	H357	0.247400	0.781500	0.973900
H3581	H358	0.423000	0.011100	0.961700
H3591	H359	0.363300	0.974800	0.955900
H3601	H360	0.379700	0.969400	0.928700
Ag611	Ag61	0.024430	0.458290	0.516860
Ag621	Ag62	0.980580	0.458870	0.452170
Ag631	Ag63	0.081130	0.592860	0.015950
Ag641	Ag64	0.733290	0.899260	0.135730
Ag651	Ag65	0.688040	0.892060	0.068700
Ag661	Ag66	0.608430	0.829950	0.117680
Ag671	Ag67	0.514680	0.097750	0.738730
Ag681	Ag68	0.504220	0.153890	0.780030
Ag691	Ag69	0.447570	0.044100	0.793370
Ag701	Ag70	0.856270	0.693380	0.888150
Ag711	Ag71	0.771390	0.582040	0.833110
Ag721	Ag72	0.725510	0.610610	0.859360
Ag731	Ag73	0.852060	0.156410	0.385910
Ag741	Ag74	0.793140	0.114580	0.441040
Ag751	Ag75	0.818380	0.065860	0.417300
Ag761	Ag76	0.337730	0.684450	0.959800
Ag771	Ag77	0.353340	0.630580	0.927460
Ag781	Ag78	0.229000	0.556520	0.906300
Ag791	Ag79	0.035660	0.152420	0.828200
Ag801	Ag80	0.099480	0.263110	0.812650
Ag811	Ag81	0.144920	0.279660	0.884040
Ag821	Ag82	0.708660	0.977250	0.606290
Ag831	Ag83	0.753920	0.986610	0.673210
Ag841	Ag84	0.839700	0.056920	0.626400
Ag851	Ag85	0.335000	0.759090	0.693830
Ag861	Ag86	0.466960	0.854680	0.715880
Ag871	Ag87	0.378590	0.733120	0.659970
Ag881	Ag88	0.974880	0.980060	0.959700
Ag891	Ag89	0.977020	0.041900	0.008840
Ag901	Ag90	0.892730	0.912840	0.006850
N1211	N121	0.957000	0.386720	0.481520
N1221	N122	0.942500	0.388200	0.454700
N1231	N123	0.077700	0.526100	0.993400
N1241	N124	0.100380	0.572030	0.992010
N1251	N125	0.120100	0.576040	0.549340
N1261	N126	0.097200	0.529680	0.549480
N1271	N127	0.775380	0.927000	0.103380
N1281	N128	0.759050	0.927640	0.077290
N1291	N129	0.611560	0.846890	0.056850
N1301	N130	0.580240	0.824520	0.076360
N1311	N131	0.976490	0.131480	0.307170
N1321	N132	0.020250	0.184910	0.324960
N1331	N133	0.545950	0.162110	0.728660
N1341	N134	0.541970	0.184370	0.745940
N1351	N135	0.618750	0.307010	0.659160
N1361	N136	0.572530	0.257300	0.638030
N1371	N137	0.452170	0.009000	0.768570
N1381	N138	0.481200	0.032200	0.747600
N1391	N139	0.882680	0.674750	0.876230
N1401	N140	0.847750	0.629220	0.851770
N1411	N141	0.034170	0.721140	0.838710
N1421	N142	0.041760	0.718070	0.867430
N1431	N143	0.784450	0.686330	0.890980
N1441	N144	0.834500	0.716850	0.899950
N1451	N145	0.846760	0.193920	0.405480
N1461	N146	0.818610	0.173600	0.426810
N1471	N147	0.780760	0.069920	0.464480
N1481	N148	0.793590	0.051840	0.456830
N1491	N149	0.853070	0.090430	0.381300
N1501	N150	0.865510	0.126110	0.369420
N1511	N151	0.412360	0.726180	0.975140
N1521	N152	0.418890	0.705190	0.960280
N1531	N153	0.287780	0.549280	0.902260
N1541	N154	0.238000	0.520400	0.892600
N1551	N155	0.216950	0.587460	0.927010
N1561	N156	0.259480	0.636000	0.950680
N1571	N157	0.005940	0.142660	0.785200
N1581	N158	0.031020	0.189000	0.780820
N1591	N159	0.160550	0.338490	0.844440
N1601	N160	0.178390	0.345820	0.874410
N1611	N161	0.102740	0.210440	0.894580
N1621	N162	0.060570	0.161090	0.872060
N1631	N163	0.659600	0.938800	0.635600
N1641	N164	0.679970	0.944800	0.662970
N1651	N165	0.830230	0.032930	0.686760
N1661	N166	0.864980	0.060800	0.668580
N1671	N167	0.811100	0.051990	0.585490
N1681	N168	0.758530	0.017030	0.577560
N1691	N169	0.388370	0.835940	0.718910
N1701	N170	0.441900	0.874400	0.730700
N1711	N171	0.495130	0.842550	0.695080
N1721	N172	0.463180	0.797180	0.672160
N1731	N173	0.298250	0.678920	0.643170
N1741	N174	0.281700	0.688200	0.659500
N1751	N175	0.025070	0.056510	0.959380
N1761	N176	0.022660	0.080360	0.977420
N1771	N177	0.922520	0.998710	0.035230
N1781	N178	0.892270	0.949700	0.036570
N1791	N179	0.882820	0.871150	0.971770
N1801	N180	0.915770	0.898440	0.953210
C3011	C301	0.942400	0.329000	0.502600
C3021	C302	0.931500	0.339800	0.476700
C3031	C303	0.901400	0.309500	0.446900
C3041	C304	0.906500	0.339700	0.432800
C3051	C305	0.883700	0.328400	0.401900
C3061	C306	0.085000	0.481000	0.976600
C3071	C307	0.101700	0.525800	0.978700
C3081	C308	0.141100	0.571800	0.968100
C3091	C309	0.138700	0.599500	0.977400
C3101	C310	0.170000	0.651700	0.971700
C3111	C311	0.201500	0.673100	0.577000
C3121	C312	0.167500	0.618000	0.572900
C3131	C313	0.175100	0.599300	0.587800
C3141	C314	0.130400	0.543800	0.572000
C3151	C315	0.116000	0.500900	0.577900
C3161	C316	0.841980	0.947000	0.126580
C3171	C317	0.815370	0.941430	0.100800
C3181	C318	0.824590	0.950500	0.072090
C3191	C319	0.787500	0.940420	0.058320
C3201	C320	0.776600	0.942000	0.026400
C3211	C321	0.606300	0.847700	0.002400
C3221	C322	0.582280	0.829900	0.028580
C3231	C323	0.530600	0.795190	0.029790
C3241	C324	0.531100	0.793300	0.060600
C3251	C325	0.488100	0.763100	0.076600
C3261	C326	0.876900	0.043600	0.297900
C3271	C327	0.930400	0.102400	0.313200
C3281	C328	0.944410	0.137400	0.336410
C3291	C329	0.999400	0.187220	0.343220
C3301	C330	0.036600	0.239000	0.366400
C3311	C331	0.569300	0.164100	0.682400
C3321	C332	0.561400	0.181400	0.704800
C3331	C333	0.570000	0.218300	0.705700
C3341	C334	0.556800	0.218900	0.731700
C3351	C335	0.556800	0.250100	0.745100
C3361	C336	0.671600	0.347800	0.712800
C3371	C337	0.625190	0.300600	0.685390
C3381	C338	0.581940	0.245100	0.682040
C3391	C339	0.550500	0.219900	0.651600
C3401	C340	0.497800	0.160600	0.636000
C3411	C341	0.394700	0.928200	0.786500
C3421	C342	0.430800	0.964700	0.767700
C3431	C343	0.445800	0.957400	0.745400
C3441	C344	0.478500	0.002600	0.733900
C3451	C345	0.504400	0.015600	0.709000
C3461	C346	0.978400	0.754600	0.908000
C3471	C347	0.930760	0.701760	0.882520
C3481	C348	0.928200	0.674600	0.862600
C3491	C349	0.874200	0.628100	0.843500
C3501	C350	0.846700	0.583800	0.817900
C3511	C351	0.976100	0.707000	0.804900
C3521	C352	0.992100	0.705100	0.833400
C3531	C353	0.972600	0.692300	0.859300
C3541	C354	0.004600	0.700450	0.880250
C3551	C355	0.002100	0.692800	0.910900
C3561	C356	0.732900	0.687800	0.899700
C3571	C357	0.784800	0.714700	0.904100
C3581	C358	0.838800	0.766700	0.921300
C3591	C359	0.867500	0.764900	0.918600
C3601	C360	0.927400	0.809800	0.933400
C3611	C361	0.915600	0.278100	0.387900
C3621	C362	0.878600	0.244700	0.407900
C3631	C363	0.869200	0.256100	0.431700
C3641	C364	0.831300	0.210400	0.442900
C3651	C365	0.806400	0.198700	0.468100
C3661	C366	0.767100	0.089400	0.508900
C3671	C367	0.779500	0.070500	0.493200
C3681	C368	0.790800	0.053500	0.506100
C3691	C369	0.800820	0.042790	0.482210
C3701	C370	0.816500	0.024400	0.482100
C3711	C371	0.869900	0.051400	0.379100
C3721	C372	0.877700	0.088000	0.370700
C3731	C373	0.907460	0.123320	0.351380
C3741	C374	0.897800	0.144700	0.351700
C3751	C375	0.919600	0.185800	0.336200
C3761	C376	0.457400	0.793900	0.023900
C3771	C377	0.452900	0.763200	0.002500
C3781	C378	0.484400	0.764000	0.005200
C3791	C379	0.462100	0.727900	0.978000
C3801	C380	0.477100	0.709900	0.968200
C3811	C381	0.331600	0.538000	0.906000
C3821	C382	0.281110	0.515250	0.897160
C3831	C383	0.227400	0.462800	0.883800
C3841	C384	0.200500	0.467500	0.881600
C3851	C385	0.141500	0.424000	0.869300
C3861	C386	0.116600	0.504900	0.907500
C3871	C387	0.169800	0.559400	0.929800
C3881	C388	0.181500	0.589800	0.954700
C3891	C389	0.237500	0.636600	0.966500
C3901	C390	0.274300	0.685300	0.993400
C3911	C391	0.924800	0.044000	0.760200
C3921	C392	0.960300	0.098700	0.760800
C3931	C393	0.954900	0.116600	0.741300
C3941	C394	0.000600	0.173000	0.755000
C3951	C395	0.015200	0.213800	0.744800
C3961	C396	0.163100	0.382200	0.815300
C3971	C397	0.176600	0.379400	0.845000
C3981	C398	0.204400	0.413840	0.873440
C3991	C399	0.204500	0.390500	0.892000
C4001	C400	0.226800	0.408500	0.925700
C4011	C401	0.152800	0.248900	0.948700
C4021	C402	0.107330	0.201500	0.920630
C4031	C403	0.067540	0.147230	0.916770
C4041	C404	0.038500	0.122610	0.885510
C4051	C405	0.988500	0.063700	0.866200
C4061	C406	0.575900	0.893700	0.606000
C4071	C407	0.609800	0.907600	0.633800
C4081	C408	0.596000	0.891800	0.661200
C4091	C409	0.642700	0.916800	0.678700
C4101	C410	0.654000	0.916200	0.710000
C4111	C411	0.830300	0.025100	0.739800
C4121	C412	0.857400	0.047400	0.714200
C4131	C413	0.910600	0.085200	0.714600
C4141	C414	0.913100	0.092100	0.685400
C4151	C415	0.958100	0.125600	0.670700
C4161	C416	0.888600	0.112400	0.563600
C4171	C417	0.830800	0.070000	0.561000
C4181	C418	0.790600	0.046600	0.537000
C4191	C419	0.745460	0.013500	0.548560
C4201	C420	0.688400	0.976900	0.533900
C4211	C421	0.327000	0.828100	0.713700
C4221	C422	0.382400	0.860000	0.723800
C4231	C423	0.431700	0.914000	0.737700
C4241	C424	0.469200	0.922900	0.741500
C4251	C425	0.529600	0.974000	0.755000
C4261	C426	0.592500	0.935900	0.715400
C4271	C427	0.547800	0.881800	0.694200
C4281	C428	0.547500	0.860400	0.670300
C4291	C429	0.493000	0.806600	0.657200
C4301	C430	0.468400	0.764400	0.630600
C4311	C431	0.269300	0.626500	0.593400
C4321	C432	0.261800	0.644100	0.616500
C4331	C433	0.221200	0.631300	0.613700
C4341	C434	0.235200	0.659600	0.641800
C4351	C435	0.206000	0.660500	0.652700
C4361	C436	0.050700	0.061900	0.912200
C4371	C437	0.043200	0.078800	0.935800
C4381	C438	0.053910	0.118120	0.938830
C4391	C439	0.040460	0.117100	0.964960
C4401	C440	0.042200	0.149300	0.980100
C4411	C441	0.926600	0.056100	0.050100
C4421	C442	0.903100	0.006200	0.047900
C4431	C443	0.859160	0.960240	0.058400
C4441	C444	0.855000	0.926800	0.050400
C4451	C445	0.814400	0.871200	0.054800
C4461	C446	0.810300	0.780100	0.980000
C4471	C447	0.849300	0.819400	0.962700
C4481	C448	0.861900	0.814000	0.937900
C4491	C449	0.903650	0.864400	0.933250
C4501	C450	0.933400	0.884400	0.908800
H3611	H361	0.966400	0.359300	0.521300
H3621	H362	0.960100	0.325800	0.497100
H3631	H363	0.907900	0.295000	0.506300
H3641	H364	0.896800	0.359000	0.400000
H3651	H365	0.843800	0.295200	0.397000
H3661	H366	0.895000	0.323500	0.387700
H3671	H367	0.055600	0.454900	0.986300
H3681	H368	0.116300	0.495500	0.987200
H3691	H369	0.072100	0.462500	0.955000
H3701	H370	0.158400	0.660200	0.981200
H3711	H371	0.162400	0.646800	0.949600
H3721	H372	0.209000	0.681700	0.980700
H3731	H373	0.183400	0.671600	0.561800
H3741	H374	0.236900	0.697300	0.574000
H3751	H375	0.206600	0.686900	0.597700
H3761	H376	0.081700	0.465700	0.562800
H3771	H377	0.111900	0.497700	0.598600
H3781	H378	0.145200	0.511700	0.575900
H3791	H379	0.825400	0.937800	0.143400
H3801	H380	0.880800	0.984600	0.133600
H3811	H381	0.837800	0.922400	0.120200
H3821	H382	0.748600	0.933700	0.023700
H3831	H383	0.764000	0.914800	0.011000
H3841	H384	0.810200	0.978300	0.024100
H3851	H385	0.644000	0.872300	0.009300
H3861	H386	0.606100	0.866900	0.994600
H3871	H387	0.585000	0.815900	0.986100
H3881	H388	0.502500	0.771400	0.098300
H3891	H389	0.456600	0.723900	0.066900
H3901	H390	0.476600	0.774200	0.075200
H3911	H391	0.880900	0.031400	0.282500
H3921	H392	0.851400	0.037000	0.288000
H3931	H393	0.863000	0.023300	0.313300
H3941	H394	0.074000	0.267300	0.365300
H3951	H395	0.034700	0.233700	0.387000
H3961	H396	0.025600	0.250100	0.362300
H3971	H397	0.559700	0.137100	0.688200
H3981	H398	0.545900	0.148000	0.661900
H3991	H399	0.607500	0.195900	0.682200
H4001	H400	0.545700	0.241300	0.764000
H4011	H401	0.593500	0.289300	0.749600
H4021	H402	0.531200	0.240300	0.730300
H4031	H403	0.695000	0.381700	0.707700
H4041	H404	0.657600	0.344700	0.729500
H4051	H405	0.692800	0.347900	0.719300
H4061	H406	0.485500	0.155100	0.614600
H4071	H407	0.502600	0.143300	0.636700
H4081	H408	0.470400	0.144300	0.646500
H4091	H409	0.391300	0.943000	0.799500
H4101	H410	0.358500	0.892000	0.772900
H4111	H411	0.409900	0.925000	0.799300
H4121	H412	0.524300	0.049100	0.705400
H4131	H413	0.529800	0.020700	0.715100
H4141	H414	0.476100	0.985400	0.690100
H4151	H415	0.966700	0.762500	0.918000
H4161	H416	0.991500	0.751100	0.923000
H4171	H417	0.007800	0.784200	0.899400
H4181	H418	0.808600	0.557600	0.809600
H4191	H419	0.865100	0.598900	0.801600
H4201	H420	0.848200	0.565400	0.825200
H4211	H421	0.997800	0.717800	0.791200
H4221	H422	0.937400	0.670900	0.794500
H4231	H423	0.982500	0.733600	0.809900
H4241	H424	0.030500	0.702500	0.919600
H4251	H425	0.007800	0.716000	0.924000
H4261	H426	0.966200	0.654500	0.909500
H4271	H427	0.703000	0.650800	0.886000
H4281	H428	0.725600	0.686200	0.919600
H4291	H429	0.736000	0.708900	0.890700
H4301	H430	0.936500	0.797200	0.927500
H4311	H431	0.949300	0.842000	0.926500
H4321	H432	0.935100	0.819100	0.955800
H4331	H433	0.911000	0.256800	0.373200
H4341	H434	0.953500	0.311100	0.400600
H4351	H435	0.906600	0.288300	0.376700
H4361	H436	0.781400	0.162300	0.469700
H4371	H437	0.786300	0.200200	0.463700
H4381	H438	0.835200	0.226000	0.487600
H4391	H439	0.759400	0.098000	0.494000
H4401	H440	0.798500	0.121900	0.526200
H4411	H441	0.735100	0.060200	0.516300
H4421	H442	0.820000	0.020400	0.461800
H4431	H443	0.788300	0.989300	0.486800
H4441	H444	0.851300	0.051300	0.497600
H4451	H445	0.846800	0.033100	0.393100
H4461	H446	0.905300	0.072700	0.389200
H4471	H447	0.852200	0.024000	0.360600
H4481	H448	0.905100	0.193000	0.340900
H4491	H449	0.908500	0.171500	0.314000
H4501	H450	0.959400	0.219700	0.343700
H4511	H451	0.428700	0.783700	0.015000
H4521	H452	0.493100	0.833100	0.027200
H4531	H453	0.453300	0.785200	0.043500
H4541	H454	0.453100	0.683600	0.947700
H4551	H455	0.472900	0.692700	0.982800
H4561	H456	0.515000	0.741600	0.967400
H4571	H457	0.363900	0.577500	0.915000
H4581	H458	0.335700	0.529900	0.887600
H4591	H459	0.327400	0.521100	0.920900
H4601	H460	0.135400	0.440200	0.870600
H4611	H461	0.121300	0.397700	0.881400
H4621	H462	0.128700	0.405200	0.847700
H4631	H463	0.123200	0.495400	0.892400
H4641	H464	0.098300	0.506500	0.897000
H4651	H465	0.093200	0.477200	0.918600
H4661	H466	0.312300	0.711800	0.995300
H4671	H467	0.265300	0.673800	0.012300
H4681	H468	0.269200	0.702000	0.990200
H4691	H469	0.940800	0.046100	0.777900
H4701	H470	0.888900	0.021100	0.761000
H4711	H471	0.921000	0.028100	0.741100
H4721	H472	0.049900	0.250300	0.758800
H4731	H473	0.018900	0.213500	0.724000
H4741	H474	0.986600	0.204300	0.745100
H4751	H475	0.143100	0.351300	0.798600
H4761	H476	0.140400	0.380500	0.816700
H4771	H477	0.196800	0.416500	0.811300
H4781	H478	0.220600	0.383800	0.931600
H4791	H479	0.266000	0.445600	0.931600
H4801	H480	0.208500	0.408100	0.936000
H4811	H481	0.174200	0.282600	0.944200
H4821	H482	0.137500	0.243300	0.965400
H4831	H483	0.176500	0.251900	0.955000
H4841	H484	0.979200	0.061700	0.845100
H4851	H485	0.995900	0.048800	0.866300
H4861	H486	0.957800	0.042600	0.874800
H4871	H487	0.596100	0.910500	0.590600
H4881	H488	0.541600	0.854000	0.597200
H4891	H489	0.568000	0.907400	0.612200
H4901	H490	0.690700	0.938500	0.716000
H4911	H491	0.651900	0.931200	0.724700
H4921	H492	0.627100	0.878700	0.710200
H4931	H493	0.792000	0.998500	0.732100
H4941	H494	0.832700	0.007500	0.747400
H4951	H495	0.848900	0.055100	0.756600
H4961	H496	0.945800	0.120800	0.649600
H4971	H497	0.989300	0.164200	0.682300
H4981	H498	0.969100	0.114100	0.670600
H4991	H499	0.906300	0.120200	0.583700
H5001	H500	0.891300	0.099700	0.547400
H5011	H501	0.906600	0.145700	0.561300
H5021	H502	0.666900	0.958900	0.548600
H5031	H503	0.690700	0.998800	0.528100
H5041	H504	0.670900	0.949200	0.515700
H5051	H505	0.299100	0.789700	0.704200
H5061	H506	0.327700	0.843000	0.698900
H5071	H507	0.318600	0.831300	0.731700
H5081	H508	0.543600	0.965600	0.754600
H5091	H509	0.538600	0.990300	0.776300
H5101	H510	0.546300	0.999700	0.743000
H5111	H511	0.578400	0.937600	0.729200
H5121	H512	0.611000	0.962700	0.703900
H5131	H513	0.618400	0.944000	0.727400
H5141	H514	0.428700	0.730600	0.627100
H5151	H515	0.483400	0.757400	0.635000
H5161	H516	0.476600	0.777400	0.612200
H5171	H517	0.302200	0.643000	0.602200
H5181	H518	0.272900	0.638400	0.575100
H5191	H519	0.237600	0.586800	0.587600
H5201	H520	0.226500	0.684800	0.673700
H5211	H521	0.169600	0.623600	0.652600
H5221	H522	0.202900	0.673800	0.639100
H5231	H523	0.039900	0.033600	0.916900
H5241	H524	0.089100	0.093400	0.912300
H5251	H525	0.028000	0.047400	0.891800
H5261	H526	0.029800	0.138600	0.998600
H5271	H527	0.018200	0.141900	0.965900
H5281	H528	0.079500	0.188300	0.985800
H5291	H529	0.957100	0.080800	0.041100
H5301	H530	0.939500	0.074400	0.071700
H5311	H531	0.898500	0.045600	0.039100
H5321	H532	0.822100	0.857900	0.046800
H5331	H533	0.777500	0.846100	0.043800
H5341	H534	0.817400	0.873700	0.076700
H5351	H535	0.811300	0.796900	0.996000
H5361	H536	0.820500	0.770000	0.989500
H5371	H537	0.773500	0.747400	0.965900
H5381	H538	0.961300	0.923000	0.911900
H5391	H539	0.907400	0.863300	0.888500
H5401	H540	0.951000	0.879700	0.910300
Ag911	Ag91	0.441430	0.507570	0.983140
Ag921	Ag92	0.506700	0.528410	0.047830
Ag931	Ag93	0.076910	0.065180	0.484050
Ag941	Ag94	0.263530	0.597560	0.364270
Ag951	Ag95	0.323360	0.619340	0.431300
Ag961	Ag96	0.212270	0.490750	0.382320
Ag971	Ag97	0.859020	0.775950	0.761270
Ag981	Ag98	0.873860	0.724190	0.719970
Ag991	Ag99	0.750730	0.654200	0.706630
Ag1001	Ag100	0.305230	0.968120	0.611850
Ag1011	Ag101	0.248930	0.938280	0.666890
Ag1021	Ag102	0.251250	0.866150	0.640640
Ag1031	Ag103	0.270500	0.466150	0.114090
Ag1041	Ag104	0.173540	0.352100	0.058960
Ag1051	Ag105	0.148560	0.401080	0.082700
Ag1061	Ag106	0.224650	0.377930	0.540200
Ag1071	Ag107	0.203120	0.425880	0.572540
Ag1081	Ag108	0.150220	0.322700	0.593700
Ag1091	Ag109	0.824220	0.207460	0.671800
Ag1101	Ag110	0.950460	0.286830	0.687350
Ag1111	Ag111	0.895620	0.260880	0.615960
Ag1121	Ag112	0.870960	0.102370	0.893710
Ag1131	Ag113	0.813400	0.080710	0.826790
Ag1141	Ag114	0.930520	0.213300	0.873600
Ag1151	Ag115	0.565260	0.641170	0.806170
Ag1161	Ag116	0.638800	0.751080	0.784120
Ag1171	Ag117	0.573150	0.718620	0.840030
Ag1181	Ag118	0.520360	0.015180	0.540300
Ag1191	Ag119	0.533060	0.968180	0.491160
Ag1201	Ag120	0.405990	0.885880	0.493150
N1811	N181	0.405200	0.475480	0.018480
N1821	N182	0.433500	0.487800	0.045300
N1831	N183	0.032700	0.084300	0.506600
N1841	N184	0.080020	0.108370	0.507990
N1851	N185	0.526700	0.570760	0.950660
N1861	N186	0.480200	0.547720	0.950520
N1871	N187	0.323620	0.672000	0.396620
N1881	N188	0.350350	0.681760	0.422710
N1891	N189	0.290040	0.554710	0.443150
N1901	N190	0.248160	0.503880	0.423640
N1911	N191	0.324310	0.669320	0.192830
N1921	N192	0.359950	0.695290	0.175040
N1931	N193	0.933450	0.817290	0.771340
N1941	N194	0.938430	0.796030	0.754060
N1951	N195	0.147850	0.959590	0.840840
N1961	N196	0.119270	0.934500	0.861970
N1971	N197	0.740430	0.683600	0.731430
N1981	N198	0.784600	0.733600	0.752400
N1991	N199	0.298520	0.006450	0.623770
N2001	N200	0.277450	0.995980	0.648230
N2011	N201	0.382430	0.195460	0.661290
N2021	N202	0.350640	0.174330	0.632570
N2031	N203	0.295350	0.893470	0.609020
N2041	N204	0.316900	0.934550	0.600050
N2051	N205	0.288440	0.441280	0.094520
N2061	N206	0.246790	0.391800	0.073190
N2071	N207	0.105440	0.316280	0.035520
N2081	N208	0.095010	0.336760	0.043170
N2091	N209	0.209130	0.471770	0.118700
N2101	N210	0.256690	0.496090	0.130580
N2111	N211	0.251040	0.437220	0.524860
N2121	N212	0.244910	0.458610	0.539720
N2131	N213	0.147020	0.385520	0.597740
N2141	N214	0.127800	0.345400	0.607400
N2151	N215	0.160450	0.289940	0.572990
N2161	N216	0.185320	0.308800	0.549320
N2171	N217	0.857460	0.220740	0.714800
N2181	N218	0.908180	0.250200	0.719180
N2191	N219	0.994050	0.316110	0.655560
N2201	N220	0.971410	0.303980	0.625590
N2211	N221	0.815860	0.208160	0.605420
N2221	N222	0.789030	0.188510	0.627940
N2231	N223	0.803200	0.024000	0.864400
N2241	N224	0.781830	0.017000	0.837030
N2251	N225	0.846170	0.143470	0.813240
N2261	N226	0.892220	0.196400	0.831420
N2271	N227	0.966500	0.225610	0.914510
N2281	N228	0.939470	0.180970	0.922440
N2291	N229	0.617030	0.669460	0.781090
N2301	N230	0.643700	0.711200	0.769300
N2311	N231	0.647470	0.800050	0.804920
N2321	N232	0.625020	0.791020	0.827840
N2331	N233	0.535750	0.655080	0.856830
N2341	N234	0.528700	0.622200	0.840500
N2351	N235	0.597130	0.065690	0.540620
N2361	N236	0.602940	0.045240	0.522580
N2371	N237	0.463480	0.887290	0.464770
N2381	N238	0.413130	0.855700	0.463430
N2391	N239	0.399380	0.911050	0.528230
N2401	N240	0.445230	0.962560	0.546790
C4511	C451	0.326400	0.439800	0.997400
C4521	C452	0.363100	0.454800	0.023300
C4531	C453	0.362600	0.454500	0.053100
C4541	C454	0.406900	0.473700	0.067200
C4551	C455	0.426500	0.481800	0.098100
C4561	C456	0.004400	0.108400	0.523400
C4571	C457	0.047100	0.123000	0.521300
C4581	C458	0.103700	0.173000	0.531900
C4591	C459	0.122100	0.161300	0.522600
C4601	C460	0.180000	0.198300	0.528300
C4611	C461	0.596100	0.624500	0.923000
C4621	C462	0.545100	0.594600	0.927100
C4631	C463	0.511500	0.587300	0.912200
C4641	C464	0.471800	0.558400	0.928000
C4651	C465	0.423000	0.538100	0.922100
C4661	C466	0.320420	0.715400	0.373420
C4671	C467	0.340630	0.714570	0.399200
C4681	C468	0.378410	0.752500	0.427910
C4691	C469	0.382100	0.729180	0.441680
C4701	C470	0.415600	0.750200	0.473600
C4711	C471	0.345300	0.603900	0.497600
C4721	C472	0.301320	0.553700	0.471420
C4731	C473	0.265400	0.500810	0.470210
C4741	C474	0.232700	0.470500	0.439400
C4751	C475	0.186500	0.411500	0.423400
C4761	C476	0.245700	0.579000	0.202100
C4771	C477	0.289200	0.617200	0.186800
C4781	C478	0.300990	0.608000	0.163590
C4791	C479	0.344000	0.656180	0.156780
C4801	C480	0.372600	0.670200	0.133600
C4811	C481	0.981700	0.886900	0.817600
C4821	C482	0.976600	0.856600	0.795200
C4831	C483	0.012600	0.864300	0.794300
C4841	C484	0.987200	0.825100	0.768300
C4851	C485	0.005000	0.811700	0.754900
C4861	C486	0.135000	0.958800	0.787200
C4871	C487	0.115210	0.939800	0.814610
C4881	C488	0.063060	0.899900	0.817960
C4891	C489	0.068300	0.898900	0.848400
C4901	C490	0.024600	0.861800	0.864000
C4911	C491	0.641700	0.608200	0.713500
C4921	C492	0.697000	0.663100	0.732300
C4931	C493	0.712000	0.700400	0.754600
C4941	C494	0.768700	0.744600	0.766100
C4951	C495	0.806600	0.795400	0.791000
C4961	C496	0.346600	0.070400	0.592000
C4971	C497	0.319240	0.048240	0.617480
C4981	C498	0.312000	0.065600	0.637400
C4991	C499	0.284600	0.030700	0.656500
C5001	C500	0.265900	0.028800	0.682100
C5011	C501	0.402100	0.171200	0.695100
C5021	C502	0.371700	0.158700	0.666600
C5031	C503	0.333000	0.113300	0.640700
C5041	C504	0.320200	0.124350	0.619750
C5051	C505	0.281900	0.091200	0.589100
C5061	C506	0.288100	0.833200	0.600300
C5071	C507	0.310600	0.880700	0.595900
C5081	C508	0.345400	0.917500	0.578700
C5091	C509	0.346300	0.948900	0.581400
C5101	C510	0.376400	0.994000	0.566600
C5111	C511	0.390200	0.527700	0.112100
C5121	C512	0.336800	0.470700	0.092100
C5131	C513	0.324400	0.437500	0.068300
C5141	C514	0.267500	0.388400	0.057100
C5151	C515	0.230600	0.338300	0.031900
C5161	C516	0.080500	0.258200	0.991100
C5171	C517	0.077300	0.286300	0.006800
C5181	C518	0.047400	0.284700	0.993900
C5191	C519	0.060580	0.318610	0.017790
C5201	C520	0.042300	0.334400	0.017900
C5211	C521	0.172300	0.490800	0.120900
C5221	C522	0.217300	0.507000	0.129300
C5231	C523	0.271940	0.556080	0.148620
C5241	C524	0.293000	0.546100	0.148300
C5251	C525	0.349600	0.583400	0.163800
C5261	C526	0.270000	0.433500	0.476100
C5271	C527	0.260700	0.450400	0.497500
C5281	C528	0.258800	0.479200	0.494800
C5291	C529	0.249900	0.484100	0.522000
C5301	C530	0.241700	0.508900	0.531800
C5311	C531	0.132000	0.425600	0.594000
C5321	C532	0.118090	0.383950	0.602840
C5331	C533	0.079000	0.343600	0.616200
C5341	C534	0.085900	0.318900	0.618400
C5351	C535	0.054700	0.272200	0.630700
C5361	C536	0.097400	0.209100	0.592500
C5371	C537	0.129600	0.240000	0.570200
C5381	C538	0.135100	0.226800	0.545300
C5391	C539	0.170100	0.271000	0.533500
C5401	C540	0.191900	0.280900	0.506600
C5411	C541	0.783800	0.164600	0.739800
C5421	C542	0.837900	0.199500	0.739200
C5431	C543	0.875300	0.213600	0.758700
C5441	C544	0.918000	0.245600	0.745000
C5451	C545	0.969000	0.270400	0.755200
C5461	C546	0.066900	0.347800	0.684700
C5471	C547	0.034400	0.331600	0.655000
C5481	C548	0.040400	0.330960	0.626560
C5491	C549	0.998500	0.312500	0.608000
C5501	C550	0.982800	0.301100	0.574300
C5511	C551	0.800200	0.204100	0.551300
C5521	C552	0.780870	0.186700	0.579370
C5531	C553	0.730460	0.150770	0.583230
C5541	C554	0.737100	0.152990	0.614490
C5551	C555	0.697500	0.122300	0.633800
C5561	C556	0.787700	0.969900	0.894000
C5571	C557	0.773800	0.976000	0.866200
C5581	C558	0.730600	0.934800	0.838800
C5591	C559	0.738100	0.964000	0.821300
C5601	C560	0.706200	0.944000	0.790000
C5611	C561	0.785300	0.090500	0.760200
C5621	C562	0.833200	0.143200	0.785800
C5631	C563	0.870600	0.196000	0.785400
C5641	C564	0.906700	0.227700	0.814600
C5651	C565	0.954900	0.287400	0.829300
C5661	C566	0.048800	0.325000	0.936400
C5671	C567	0.009000	0.269800	0.939000
C5681	C568	0.009600	0.253600	0.963000
C5691	C569	0.964940	0.196900	0.951440
C5701	C570	0.943000	0.154500	0.966100
C5711	C571	0.614400	0.613300	0.786300
C5721	C572	0.636200	0.658600	0.776200
C5731	C573	0.676300	0.694000	0.762300
C5741	C574	0.681400	0.727700	0.758500
C5751	C575	0.719000	0.774600	0.745000
C5761	C576	0.720500	0.877100	0.784600
C5771	C577	0.687600	0.853600	0.805800
C5781	C578	0.690100	0.877200	0.829700
C5791	C579	0.649400	0.835800	0.842800
C5801	C580	0.633800	0.837800	0.869400
C5811	C581	0.533100	0.675900	0.906600
C5821	C582	0.527600	0.645300	0.883500
C5831	C583	0.517600	0.607500	0.886300
C5841	C584	0.517800	0.593400	0.858200
C5851	C585	0.507800	0.553300	0.847300
C5861	C586	0.649700	0.138500	0.587800
C5871	C587	0.643000	0.107400	0.564200
C5881	C588	0.679290	0.115080	0.561170
C5891	C589	0.652140	0.075500	0.535040
C5901	C590	0.669200	0.062100	0.519900
C5911	C591	0.506000	0.876500	0.449900
C5921	C592	0.458300	0.855200	0.452100
C5931	C593	0.401840	0.800760	0.441600
C5941	C594	0.376400	0.804600	0.449600
C5951	C595	0.316400	0.759600	0.445200
C5961	C596	0.300100	0.830300	0.520000
C5971	C597	0.356700	0.886600	0.537300
C5981	C598	0.376100	0.924000	0.562100
C5991	C599	0.431150	0.970400	0.566750
C6001	C600	0.475600	0.024600	0.591200
H5411	H541	0.338000	0.445100	0.978700
H5421	H542	0.328700	0.463000	0.002900
H5431	H543	0.288700	0.401600	0.993700
H5441	H544	0.459000	0.496800	0.100000
H5451	H545	0.398200	0.446800	0.103000
H5461	H546	0.435800	0.507300	0.112300
H5471	H547	0.968600	0.069300	0.513700
H5481	H548	0.008300	0.129100	0.512800
H5491	H549	0.007500	0.117100	0.545000
H5501	H550	0.179000	0.177200	0.518800
H5511	H551	0.197200	0.212800	0.550400
H5521	H552	0.201000	0.228300	0.519300
H5531	H553	0.609800	0.621600	0.938200
H5541	H554	0.623300	0.662900	0.926000
H5551	H555	0.589200	0.608900	0.902300
H5561	H556	0.402900	0.518900	0.937200
H5571	H557	0.399100	0.513300	0.901400
H5581	H558	0.435800	0.569300	0.924100
H5591	H559	0.294400	0.682000	0.356600
H5601	H560	0.351000	0.747200	0.366400
H5611	H561	0.302200	0.717600	0.379800
H5621	H562	0.410000	0.724900	0.476300
H5631	H563	0.403800	0.753000	0.489000
H5641	H564	0.454200	0.786100	0.475900
H5651	H565	0.363000	0.634700	0.490700
H5661	H566	0.372300	0.611500	0.505400
H5671	H567	0.329800	0.598900	0.513900
H5681	H568	0.173100	0.404200	0.401700
H5691	H569	0.157000	0.389700	0.433100
H5701	H570	0.199000	0.401400	0.424800
H5711	H571	0.248900	0.598400	0.217500
H5721	H572	0.249000	0.563400	0.212000
H5731	H573	0.210000	0.549700	0.186700
H5741	H574	0.402000	0.708700	0.134700
H5751	H575	0.346700	0.647700	0.113000
H5761	H576	0.387800	0.663300	0.137700
H5771	H577	0.948900	0.871500	0.811800
H5781	H578	0.986100	0.884000	0.838100
H5791	H579	0.013700	0.925300	0.817800
H5801	H580	0.977300	0.781700	0.736000
H5811	H581	0.039700	0.843900	0.750400
H5821	H582	0.010000	0.800900	0.769700
H5831	H583	0.174000	0.987300	0.792300
H5841	H584	0.115200	0.928100	0.770500
H5851	H585	0.128600	0.973500	0.780700
H5861	H586	0.040500	0.870900	0.885400
H5871	H587	0.006600	0.865900	0.863300
H5881	H588	0.997800	0.823900	0.853500
H5891	H589	0.643500	0.591800	0.700500
H5901	H590	0.619100	0.585600	0.727100
H5911	H591	0.625700	0.610600	0.700700
H5921	H592	0.843700	0.818900	0.794600
H5931	H593	0.805600	0.814700	0.784900
H5941	H594	0.795300	0.786000	0.809900
H5951	H595	0.344500	0.048700	0.582000
H5961	H596	0.328100	0.068500	0.577000
H5971	H597	0.384800	0.108400	0.600600
H5981	H598	0.248000	0.999000	0.690400
H5991	H599	0.297300	0.063500	0.698400
H6001	H600	0.240200	0.023000	0.674800
H6011	H601	0.426600	0.206600	0.708800
H6021	H602	0.376400	0.142900	0.705500
H6031	H603	0.423700	0.172600	0.690100
H6041	H604	0.282900	0.110900	0.580400
H6051	H605	0.292000	0.083800	0.576000
H6061	H606	0.245000	0.056700	0.590500
H6071	H607	0.264800	0.817000	0.614000
H6081	H608	0.266600	0.806000	0.580400
H6091	H609	0.318200	0.845300	0.609300
H6101	H610	0.369700	0.009000	0.572500
H6111	H611	0.415500	0.022800	0.573500
H6121	H612	0.363300	0.979300	0.544200
H6131	H613	0.383600	0.537800	0.126800
H6141	H614	0.410500	0.552900	0.099400
H6151	H615	0.411600	0.529900	0.123300
H6161	H616	0.192600	0.311700	0.030300
H6171	H617	0.236500	0.322600	0.036300
H6181	H618	0.238400	0.347600	0.012400
H6191	H619	0.104000	0.265400	0.006000
H6201	H620	0.095700	0.272300	0.973800
H6211	H621	0.043900	0.218800	0.983700
H6221	H622	0.058600	0.358200	0.038200
H6231	H623	0.002500	0.301500	0.013200
H6241	H624	0.053700	0.353700	0.002400
H6251	H625	0.140000	0.453700	0.106900
H6261	H626	0.183500	0.516100	0.110800
H6271	H627	0.163400	0.491600	0.139400
H6281	H628	0.352100	0.564200	0.159100
H6291	H629	0.357500	0.594500	0.186000
H6301	H630	0.376000	0.615700	0.156300
H6311	H631	0.268700	0.413700	0.485000
H6321	H632	0.305900	0.465900	0.472800
H6331	H633	0.241700	0.409800	0.456500
H6341	H634	0.235900	0.505400	0.552300
H6351	H635	0.209900	0.490100	0.517200
H6361	H636	0.274200	0.547600	0.532600
H6371	H637	0.162500	0.448900	0.585000
H6381	H638	0.142300	0.448100	0.612400
H6391	H639	0.100200	0.406500	0.579100
H6401	H640	0.069600	0.264800	0.629400
H6411	H641	0.016300	0.239900	0.618600
H6421	H642	0.057500	0.281000	0.652300
H6431	H643	0.103000	0.230800	0.607600
H6441	H644	0.109500	0.201300	0.603000
H6451	H645	0.058600	0.174600	0.581400
H6461	H646	0.216500	0.317000	0.504700
H6471	H647	0.161500	0.253000	0.487700
H6481	H648	0.211800	0.279000	0.509800
H6491	H649	0.768200	0.162900	0.722100
H6501	H650	0.760100	0.127900	0.739000
H6511	H651	0.787000	0.179900	0.758900
H6521	H652	0.991500	0.291100	0.741200
H6531	H653	0.989500	0.294900	0.776000
H6541	H654	0.959200	0.241500	0.754900
H6551	H655	0.052700	0.344500	0.701400
H6561	H656	0.063800	0.323700	0.683300
H6571	H657	0.105200	0.385500	0.688700
H6581	H658	0.952200	0.289000	0.568400
H6591	H659	0.014000	0.334400	0.568400
H6601	H660	0.972100	0.272500	0.564000
H6611	H661	0.838400	0.230000	0.555800
H6621	H662	0.777900	0.172100	0.534600
H6631	H663	0.796900	0.221500	0.545000
H6641	H664	0.716600	0.134100	0.654900
H6651	H665	0.682500	0.129600	0.633700
H6661	H666	0.667800	0.083000	0.625200
H6671	H667	0.819900	0.005500	0.909400
H6681	H668	0.756800	0.944400	0.902800
H6691	H669	0.795200	0.955800	0.887800
H6701	H670	0.722500	0.974700	0.784000
H6711	H671	0.706500	0.927200	0.775300
H6721	H672	0.668500	0.916900	0.789800
H6731	H673	0.766400	0.059900	0.767900
H6741	H674	0.760100	0.085300	0.752600
H6751	H675	0.798500	0.092300	0.743400
H6761	H676	0.971200	0.296200	0.850400
H6771	H677	0.981900	0.307000	0.817700
H6781	H678	0.943500	0.298500	0.829400
H6791	H679	0.036500	0.322600	0.916300
H6801	H680	0.052300	0.343900	0.952600
H6811	H681	0.084400	0.345300	0.938700
H6821	H682	0.910300	0.118300	0.951400
H6831	H683	0.970700	0.162600	0.971900
H6841	H684	0.933500	0.155200	0.984300
H6851	H685	0.585500	0.594900	0.795800
H6861	H686	0.644100	0.628800	0.801100
H6871	H687	0.599600	0.586900	0.768300
H6881	H688	0.711000	0.789000	0.745400
H6891	H689	0.714000	0.762300	0.723700
H6901	H690	0.756700	0.803300	0.757000
H6911	H691	0.708400	0.849200	0.770800
H6921	H692	0.758800	0.907100	0.796100
H6931	H693	0.716600	0.891000	0.772600
H6941	H694	0.603500	0.801600	0.872900
H6951	H695	0.622400	0.848400	0.865000
H6961	H696	0.665200	0.864400	0.887800
H6971	H697	0.540800	0.700000	0.897800
H6981	H698	0.563300	0.697800	0.924900
H6991	H699	0.499200	0.650000	0.912400
H7001	H700	0.511100	0.552800	0.826300
H7011	H701	0.471000	0.517000	0.847400
H7021	H702	0.534700	0.563800	0.860900
H7031	H703	0.616700	0.123000	0.583100
H7041	H704	0.681100	0.176800	0.587700
H7051	H705	0.655600	0.136200	0.608200
H7061	H706	0.640000	0.031200	0.501400
H7071	H707	0.676000	0.052300	0.534100
H7081	H708	0.702500	0.093700	0.514200
H7091	H709	0.539700	0.916000	0.458900
H7101	H710	0.502700	0.867800	0.428300
H7111	H711	0.506500	0.859400	0.460900
H7121	H712	0.311100	0.775300	0.453200
H7131	H713	0.302300	0.733700	0.456200
H7141	H714	0.297000	0.740700	0.423300
H7151	H715	0.300900	0.815300	0.504000
H7161	H716	0.280500	0.831000	0.510500
H7171	H717	0.281500	0.807600	0.534100
H7181	H718	0.511100	0.049400	0.588100
H7191	H719	0.474800	0.018900	0.611500
H7201	H720	0.469400	0.040700	0.589700
Ag1211	Ag121	0.992430	0.475570	0.933860
Ag1221	Ag122	0.971590	0.519420	0.978290
Ag1231	Ag123	0.434820	0.418870	0.011730
Ag1241	Ag124	0.902440	0.766710	0.665970
Ag1251	Ag125	0.880660	0.811960	0.704020
Ag1261	Ag126	0.009250	0.891570	0.721520
Ag1271	Ag127	0.724050	0.985320	0.083070
Ag1281	Ag128	0.775810	0.995780	0.149670
Ag1291	Ag129	0.845800	0.052430	0.096530
Ag1301	Ag130	0.531880	0.643730	0.337110
Ag1311	Ag131	0.561720	0.728610	0.310650
Ag1321	Ag132	0.633850	0.774490	0.385100
Ag1331	Ag133	0.033850	0.647940	0.804350
Ag1341	Ag134	0.147900	0.706860	0.821440
Ag1351	Ag135	0.098920	0.681620	0.747480
Ag1361	Ag136	0.122070	0.162270	0.846720
Ag1371	Ag137	0.074120	0.146660	0.777240
Ag1381	Ag138	0.177300	0.271000	0.827520
Ag1391	Ag139	0.292540	0.464340	0.616760
Ag1401	Ag140	0.213170	0.400520	0.663630
Ag1411	Ag141	0.239120	0.355080	0.634740
Ag1421	Ag142	0.397630	0.791340	0.768590
Ag1431	Ag143	0.419290	0.746080	0.732690
Ag1441	Ag144	0.286700	0.660300	0.717220
Ag1451	Ag145	0.858830	0.165000	0.924090
Ag1461	Ag146	0.748920	0.033040	0.887720
Ag1471	Ag147	0.781380	0.121410	0.854530
Ag1481	Ag148	0.484820	0.525120	0.505180
Ag1491	Ag149	0.531820	0.522980	0.564880
Ag1501	Ag150	0.614120	0.607270	0.520110
N2411	N241	0.024520	0.543000	0.929720
N2421	N242	0.012200	0.557500	0.945700
N2431	N243	0.415700	0.422300	0.948400
N2441	N244	0.391630	0.399620	0.971650
N2451	N245	0.929240	0.379900	0.955940
N2461	N246	0.952280	0.402800	0.932480
N2471	N247	0.828000	0.724620	0.651620
N2481	N248	0.818240	0.740950	0.668590
N2491	N249	0.945290	0.888440	0.735330
N2501	N250	0.996120	0.919760	0.744280
N2511	N251	0.830680	0.523510	0.654990
N2521	N252	0.804710	0.479750	0.664660
N2531	N253	0.682710	0.954050	0.116160
N2541	N254	0.703970	0.958030	0.142400
N2551	N255	0.540410	0.881250	0.188260
N2561	N256	0.565500	0.927470	0.184770
N2571	N257	0.816400	0.047830	0.056830
N2581	N258	0.766400	0.018800	0.051000
N2591	N259	0.493550	0.617320	0.292070
N2601	N260	0.504020	0.652250	0.281470
N2611	N261	0.304540	0.465830	0.186970
N2621	N262	0.325670	0.458240	0.176310
N2631	N263	0.606530	0.715550	0.401880
N2641	N264	0.565450	0.665500	0.382350
N2651	N265	0.058720	0.653240	0.847160
N2661	N266	0.108200	0.681390	0.854990
N2671	N267	0.183720	0.719240	0.789160
N2681	N268	0.163240	0.706410	0.758250
N2691	N269	0.028230	0.646930	0.737360
N2701	N270	0.003910	0.634490	0.760600
N2711	N271	0.062780	0.087640	0.813820
N2721	N272	0.041390	0.081110	0.786300
N2731	N273	0.114480	0.212220	0.761500
N2741	N274	0.154600	0.262000	0.782400
N2751	N275	0.210060	0.283050	0.870510
N2761	N276	0.191200	0.240520	0.876520
N2771	N277	0.279260	0.494060	0.636720
N2781	N278	0.249800	0.468980	0.657980
N2791	N279	0.183890	0.339450	0.677940
N2801	N280	0.196020	0.321610	0.667430
N2811	N281	0.291840	0.397260	0.607700
N2821	N282	0.311490	0.439430	0.600520
N2831	N283	0.476000	0.840400	0.779200
N2841	N284	0.483000	0.820030	0.764830
N2851	N285	0.356530	0.669770	0.702700
N2861	N286	0.303600	0.635020	0.695820
N2871	N287	0.274390	0.688900	0.740890
N2881	N288	0.319030	0.741470	0.758500
N2891	N289	0.830540	0.111630	0.947570
N2901	N290	0.788800	0.058100	0.932500
N2911	N291	0.699950	0.004870	0.847420
N2921	N292	0.708980	0.036820	0.834000
N2931	N293	0.844920	0.201750	0.880670
N2941	N294	0.877800	0.218300	0.906500
N2951	N295	0.434310	0.474930	0.531440
N2961	N296	0.454760	0.477340	0.557700
N2971	N297	0.612710	0.577480	0.576190
N2981	N298	0.644300	0.607730	0.557430
N2991	N299	0.588950	0.617180	0.488330
N3001	N300	0.537440	0.584230	0.482670
C6011	C601	0.060200	0.557600	0.886600
C6021	C602	0.045200	0.568500	0.908300
C6031	C603	0.045500	0.598600	0.908100
C6041	C604	0.026300	0.593500	0.933200
C6051	C605	0.018200	0.616300	0.944700
C6061	C606	0.391600	0.415000	0.896000
C6071	C607	0.377000	0.398300	0.924100
C6081	C608	0.327000	0.358900	0.930700
C6091	C609	0.338700	0.361300	0.960800
C6101	C610	0.301700	0.330000	0.981700
C6111	C611	0.875500	0.298500	0.971600
C6121	C612	0.905400	0.332500	0.950500
C6131	C613	0.912700	0.324900	0.924200
C6141	C614	0.941600	0.369600	0.913400
C6151	C615	0.961900	0.384000	0.884900
C6161	C616	0.784600	0.658020	0.605020
C6171	C617	0.785430	0.684630	0.626060
C6181	C618	0.747500	0.675410	0.625910
C6191	C619	0.770820	0.712500	0.652920
C6201	C620	0.749800	0.723400	0.665400
C6211	C621	0.896100	0.893700	0.741400
C6221	C622	0.946300	0.917720	0.747620
C6231	C623	0.999190	0.969400	0.764590
C6241	C624	0.029500	0.968900	0.762200
C6251	C625	0.088500	0.011900	0.775000
C6261	C626	0.921000	0.623100	0.666700
C6271	C627	0.882800	0.569600	0.672000
C6281	C628	0.892000	0.555590	0.692990
C6291	C629	0.843820	0.500600	0.687820
C6301	C630	0.829800	0.463400	0.702400
C6311	C631	0.613100	0.930700	0.094800
C6321	C632	0.643400	0.938600	0.120000
C6331	C633	0.635700	0.930000	0.148300
C6341	C634	0.674900	0.943200	0.162100
C6351	C635	0.688300	0.943200	0.193300
C6361	C636	0.541200	0.828400	0.176200
C6371	C637	0.560200	0.874810	0.175410
C6381	C638	0.600100	0.918060	0.163160
C6391	C639	0.601100	0.949500	0.169400
C6401	C640	0.638200	0.002200	0.162800
C6411	C641	0.891800	0.105300	0.033500
C6421	C642	0.836900	0.069200	0.033900
C6431	C643	0.799600	0.054200	0.011600
C6441	C644	0.755400	0.021500	0.024100
C6451	C645	0.704600	0.995600	0.011200
C6461	C646	0.429600	0.521600	0.276200
C6471	C647	0.451760	0.569240	0.271000
C6481	C648	0.434400	0.571800	0.246400
C6491	C649	0.469300	0.625800	0.253900
C6501	C650	0.471200	0.653300	0.237100
C6511	C651	0.328800	0.523900	0.230900
C6521	C652	0.341300	0.507900	0.213000
C6531	C653	0.386700	0.527400	0.219700
C6541	C654	0.375650	0.495400	0.195850
C6551	C655	0.408800	0.497900	0.190700
C6561	C656	0.666800	0.767100	0.454900
C6571	C657	0.619300	0.715200	0.429900
C6581	C658	0.582500	0.661200	0.427900
C6591	C659	0.551100	0.632500	0.397400
C6601	C660	0.506000	0.572600	0.382400
C6611	C661	0.972300	0.584400	0.862500
C6621	C662	0.029300	0.621400	0.866100
C6631	C663	0.062500	0.630800	0.886900
C6641	C664	0.111600	0.668700	0.879100
C6651	C665	0.161700	0.693600	0.892300
C6661	C666	0.241800	0.732900	0.822300
C6671	C667	0.213700	0.720500	0.791000
C6681	C668	0.215300	0.709200	0.762700
C6691	C669	0.181390	0.699180	0.741970
C6701	C670	0.165600	0.683500	0.707900
C6711	C671	0.009200	0.630100	0.681500
C6721	C672	0.993000	0.622300	0.710300
C6731	C673	0.943920	0.592540	0.715860
C6741	C674	0.953900	0.602200	0.746900
C6751	C675	0.916600	0.580400	0.766200
C6761	C676	0.066500	0.042600	0.836500
C6771	C677	0.049600	0.047100	0.810300
C6781	C678	0.020800	0.015600	0.779600
C6791	C679	0.015900	0.037900	0.765800
C6801	C680	0.991100	0.022900	0.732800
C6811	C681	0.074400	0.168400	0.706400
C6821	C682	0.116050	0.218890	0.734140
C6831	C683	0.156400	0.272600	0.735400
C6841	C684	0.181100	0.299500	0.767000
C6851	C685	0.227800	0.358500	0.782500
C6861	C686	0.290900	0.383400	0.888300
C6871	C687	0.260000	0.330200	0.889600
C6881	C688	0.273200	0.318500	0.908300
C6891	C689	0.229000	0.262500	0.899100
C6901	C690	0.219100	0.225700	0.911000
C6911	C691	0.335400	0.575200	0.619200
C6921	C692	0.300500	0.539700	0.638400
C6931	C693	0.286400	0.545100	0.661700
C6941	C694	0.254400	0.499400	0.672400
C6951	C695	0.229600	0.484800	0.698600
C6961	C696	0.152200	0.336900	0.719100
C6971	C697	0.168400	0.323400	0.702800
C6981	C698	0.169040	0.295600	0.709440
C6991	C699	0.187500	0.295500	0.686000
C7001	C700	0.198900	0.273200	0.681700
C7011	C701	0.295900	0.347200	0.596100
C7021	C702	0.313300	0.392670	0.594170
C7031	C703	0.349230	0.432460	0.579690
C7041	C704	0.347010	0.461500	0.584110
C7051	C705	0.377700	0.511500	0.575200
C7061	C706	0.530100	0.924100	0.817800
C7071	C707	0.524000	0.890200	0.797800
C7081	C708	0.565200	0.904000	0.795800
C7091	C709	0.536000	0.857300	0.774100
C7101	C710	0.556000	0.846000	0.762200
C7111	C711	0.409500	0.669700	0.694800
C7121	C712	0.356800	0.642600	0.690000
C7131	C713	0.304000	0.589400	0.674600
C7141	C714	0.272300	0.586900	0.679000
C7151	C715	0.212600	0.541900	0.667500
C7161	C716	0.175000	0.611400	0.723800
C7171	C717	0.230200	0.669200	0.739200
C7181	C718	0.246400	0.709400	0.756000
C7191	C719	0.303100	0.754540	0.768040
C7201	C720	0.345500	0.811600	0.788500
C7211	C721	0.886700	0.173000	0.001100
C7221	C722	0.841400	0.117600	0.977600
C7231	C723	0.806000	0.068300	0.982300
C7241	C724	0.772300	0.030800	0.953700
C7251	C725	0.725400	0.970400	0.944400
C7261	C726	0.622900	0.907500	0.843400
C7271	C727	0.646400	0.952200	0.834000
C7281	C728	0.622800	0.952500	0.812900
C7291	C729	0.664200	0.007000	0.813600
C7301	C730	0.662200	0.031600	0.796000
C7311	C731	0.824100	0.230700	0.857200
C7321	C732	0.854700	0.238200	0.882300
C7331	C733	0.892500	0.278800	0.910100
C7341	C734	0.906600	0.264800	0.924400
C7351	C735	0.946700	0.294000	0.954500
C7361	C736	0.361500	0.449300	0.511200
C7371	C737	0.392600	0.456800	0.535600
C7381	C738	0.384920	0.446090	0.564210
C7391	C739	0.424500	0.459540	0.576640
C7401	C740	0.437900	0.457800	0.607100
C7411	C741	0.623500	0.573400	0.629500
C7421	C742	0.644800	0.596900	0.603100
C7431	C743	0.699240	0.640840	0.601080
C7441	C744	0.695400	0.645000	0.571800
C7451	C745	0.740400	0.685600	0.556800
C7461	C746	0.669700	0.689700	0.469800
C7471	C747	0.613400	0.650700	0.470100
C7481	C748	0.576000	0.638100	0.452100
C7491	C749	0.529600	0.596350	0.460750
C7501	C750	0.475400	0.566600	0.451000
H7211	H721	0.054900	0.533600	0.892900
H7221	H722	0.037000	0.539900	0.865700
H7231	H723	0.098400	0.592100	0.887100
H7241	H724	0.003200	0.603200	0.962200
H7251	H725	0.053200	0.656200	0.951400
H7261	H726	0.992700	0.605000	0.928500
H7271	H727	0.430700	0.444400	0.899300
H7281	H728	0.370900	0.383700	0.879200
H7291	H729	0.382900	0.427900	0.890400
H7301	H730	0.322800	0.341600	0.001800
H7311	H731	0.287200	0.337600	0.984400
H7321	H732	0.271700	0.291000	0.972700
H7331	H733	0.878400	0.316600	0.988200
H7341	H734	0.837100	0.263100	0.960400
H7351	H735	0.891100	0.293400	0.980300
H7361	H736	0.981100	0.418300	0.884000
H7371	H737	0.986700	0.388100	0.885800
H7381	H738	0.930700	0.354800	0.866500
H7391	H739	0.818000	0.674600	0.612400
H7401	H740	0.752800	0.619200	0.603800
H7411	H741	0.782400	0.662200	0.584600
H7421	H742	0.775100	0.751400	0.685100
H7431	H743	0.747000	0.736000	0.650800
H7441	H744	0.713900	0.689800	0.668100
H7451	H745	0.865300	0.856000	0.728300
H7461	H746	0.888500	0.893900	0.760800
H7471	H747	0.901100	0.915000	0.730900
H7481	H748	0.095800	0.997500	0.768900
H7491	H749	0.110300	0.043400	0.767300
H7501	H750	0.098600	0.023400	0.797600
H7511	H751	0.901600	0.619100	0.650500
H7521	H752	0.936600	0.648600	0.685600
H7531	H753	0.950300	0.637000	0.660300
H7541	H754	0.791300	0.426000	0.693300
H7551	H755	0.852300	0.465300	0.699000
H7561	H756	0.836700	0.474400	0.724500
H7571	H757	0.628500	0.940300	0.077400
H7581	H758	0.616000	0.954100	0.102100
H7591	H759	0.574700	0.892500	0.088400
H7601	H760	0.718300	0.954300	0.195600
H7611	H761	0.656100	0.906500	0.195800
H7621	H762	0.699100	0.968800	0.209100
H7631	H763	0.512700	0.805000	0.186700
H7641	H764	0.571900	0.842400	0.187100
H7651	H765	0.526500	0.807200	0.155100
H7661	H766	0.629100	0.014500	0.169600
H7671	H767	0.634100	0.997400	0.140700
H7681	H768	0.676100	0.029600	0.173900
H7691	H769	0.908200	0.108700	0.051700
H7701	H770	0.914400	0.141500	0.033500
H7711	H771	0.889400	0.090100	0.015100
H7721	H772	0.681100	0.975700	0.024800
H7731	H773	0.685300	0.970200	0.990900
H7741	H774	0.714000	0.023900	0.009300
H7751	H775	0.451300	0.533300	0.295800
H7761	H776	0.431500	0.508500	0.259600
H7771	H777	0.391600	0.492200	0.276400
H7781	H778	0.501000	0.691400	0.249000
H7791	H779	0.436500	0.634900	0.233800
H7801	H780	0.477000	0.651800	0.217200
H7811	H781	0.293400	0.502200	0.220000
H7821	H782	0.357100	0.562600	0.233500
H7831	H783	0.327400	0.517500	0.251100
H7841	H784	0.389100	0.469500	0.172000
H7851	H785	0.416200	0.492200	0.208200
H7861	H786	0.443300	0.533800	0.188300
H7871	H787	0.683000	0.797000	0.447800
H7881	H788	0.694000	0.774400	0.460600
H7891	H789	0.654700	0.764000	0.472900
H7901	H790	0.491000	0.563500	0.360700
H7911	H791	0.477200	0.550700	0.392700
H7921	H792	0.520700	0.564900	0.384000
H7931	H793	0.962200	0.589000	0.845800
H7941	H794	0.947100	0.546500	0.857600
H7951	H795	0.970100	0.593400	0.881700
H7961	H796	0.188300	0.718600	0.880900
H7971	H797	0.177400	0.713700	0.913900
H7981	H798	0.152400	0.664800	0.890800
H7991	H799	0.234600	0.740600	0.838600
H8001	H800	0.227700	0.701500	0.823400
H8011	H801	0.281200	0.764900	0.825100
H8021	H802	0.141800	0.680000	0.700400
H8031	H803	0.198500	0.711700	0.701000
H8041	H804	0.146300	0.648700	0.700000
H8051	H805	0.046300	0.653200	0.686300
H8061	H806	0.983900	0.594700	0.667400
H8071	H807	0.008400	0.647800	0.671800
H8081	H808	0.935800	0.594900	0.787900
H8091	H809	0.905500	0.591500	0.763000
H8101	H810	0.884300	0.540600	0.760300
H8111	H811	0.086300	0.071300	0.855000
H8121	H812	0.034100	0.006900	0.840000
H8131	H813	0.090200	0.046700	0.831900
H8141	H814	0.994600	0.046900	0.730500
H8151	H815	0.009900	0.027100	0.719800
H8161	H816	0.952400	0.985000	0.726600
H8171	H817	0.051100	0.136100	0.713600
H8181	H818	0.051900	0.164300	0.694200
H8191	H819	0.093500	0.172600	0.693700
H8201	H820	0.235200	0.364600	0.804800
H8211	H821	0.260100	0.378700	0.776400
H8221	H822	0.219000	0.371300	0.776500
H8231	H823	0.269200	0.376800	0.872200
H8241	H824	0.298700	0.401700	0.908200
H8251	H825	0.325400	0.406800	0.884000
H8261	H826	0.183000	0.187700	0.899500
H8271	H827	0.247000	0.234700	0.908500
H8281	H828	0.221000	0.230800	0.932800
H8291	H829	0.337100	0.559200	0.605300
H8301	H830	0.372100	0.611100	0.632200
H8311	H831	0.320100	0.579000	0.607100
H8321	H832	0.208900	0.450100	0.700400
H8331	H833	0.205100	0.481100	0.694600
H8341	H834	0.258500	0.513400	0.717700
H8351	H835	0.155500	0.356900	0.708200
H8361	H836	0.176300	0.359600	0.740100
H8371	H837	0.114500	0.303200	0.719700
H8381	H838	0.211000	0.279400	0.663200
H8391	H839	0.165600	0.234000	0.679600
H8401	H840	0.227500	0.291500	0.699600
H8411	H841	0.270000	0.325800	0.608400
H8421	H842	0.327900	0.362500	0.605800
H8431	H843	0.278500	0.323500	0.575400
H8441	H844	0.365900	0.520800	0.582500
H8451	H845	0.370400	0.504100	0.552900
H8461	H846	0.417000	0.542200	0.584800
H8471	H847	0.494500	0.903900	0.814400
H8481	H848	0.555600	0.958400	0.812400
H8491	H849	0.544200	0.932000	0.839400
H8501	H850	0.525300	0.809300	0.747800
H8511	H851	0.572800	0.848100	0.779300
H8521	H852	0.583100	0.872900	0.751600
H8531	H853	0.440100	0.708000	0.706500
H8541	H854	0.414700	0.667300	0.674800
H8551	H855	0.407700	0.651100	0.706200
H8561	H856	0.203800	0.554200	0.675000
H8571	H857	0.193000	0.510700	0.674900
H8581	H858	0.201500	0.530900	0.645000
H8591	H859	0.177400	0.593700	0.713900
H8601	H860	0.156100	0.608700	0.708400
H8611	H861	0.154700	0.593400	0.739100
H8621	H862	0.381700	0.833100	0.792000
H8631	H863	0.337400	0.809300	0.808100
H8641	H864	0.344800	0.829100	0.778300
H8651	H865	0.905100	0.200900	0.990600
H8661	H866	0.871200	0.172300	0.015300
H8671	H867	0.913100	0.181400	0.012700
H8681	H868	0.711000	0.956400	0.922000
H8691	H869	0.737700	0.961400	0.951700
H8701	H870	0.696700	0.953700	0.953400
H8711	H871	0.650800	0.921600	0.859200
H8721	H872	0.592900	0.889000	0.851700
H8731	H873	0.609000	0.881600	0.825600
H8741	H874	0.698400	0.071300	0.801900
H8751	H875	0.651600	0.016600	0.774000
H8761	H876	0.635600	0.023400	0.800800
H8771	H877	0.800000	0.197800	0.840800
H8781	H878	0.802200	0.227100	0.865500
H8791	H879	0.850000	0.262400	0.849200
H8801	H880	0.947200	0.273500	0.958300
H8811	H881	0.983000	0.330400	0.954000
H8821	H882	0.936200	0.297100	0.970900
H8831	H883	0.377000	0.460100	0.493700
H8841	H884	0.323200	0.410900	0.504300
H8851	H885	0.363800	0.472000	0.519400
H8861	H886	0.468800	0.470200	0.608800
H8871	H887	0.447700	0.481800	0.623700
H8881	H888	0.406300	0.420500	0.608800
H8891	H889	0.584000	0.542900	0.623700
H8901	H890	0.632200	0.560500	0.634900
H8911	H891	0.640600	0.601500	0.647100
H8921	H892	0.724700	0.677900	0.535800
H8931	H893	0.766300	0.722500	0.568600
H8941	H894	0.759300	0.682600	0.556300
H8951	H895	0.684700	0.688700	0.485600
H8961	H896	0.669000	0.679500	0.449500
H8971	H897	0.692400	0.726500	0.473900
H8981	H898	0.450600	0.538700	0.461700
H8991	H899	0.481100	0.592600	0.455900
H9001	H900	0.459300	0.549000	0.428700
Ag1511	Ag151	0.041710	0.058570	0.566140
Ag1521	Ag152	0.041130	0.993300	0.521710
Ag1531	Ag153	0.907140	0.423090	0.488270
Ag1541	Ag154	0.600740	0.236470	0.834030
Ag1551	Ag155	0.607940	0.176640	0.795980
Ag1561	Ag156	0.670050	0.287730	0.778480
Ag1571	Ag157	0.402250	0.640980	0.416930
Ag1581	Ag158	0.346110	0.626140	0.350330
Ag1591	Ag159	0.455900	0.749270	0.403470
Ag1601	Ag160	0.806620	0.194770	0.162890
Ag1611	Ag161	0.917960	0.251070	0.189350
Ag1621	Ag162	0.889390	0.248750	0.114900
Ag1631	Ag163	0.343590	0.229500	0.695650
Ag1641	Ag164	0.385420	0.326460	0.678560
Ag1651	Ag165	0.434140	0.351440	0.752520
Ag1661	Ag166	0.815550	0.275350	0.653280
Ag1671	Ag167	0.869420	0.296880	0.722760
Ag1681	Ag168	0.943480	0.349780	0.672480
Ag1691	Ag169	0.347580	0.675780	0.883240
Ag1701	Ag170	0.236890	0.549540	0.836370
Ag1711	Ag171	0.220340	0.604380	0.865260
Ag1721	Ag172	0.522750	0.629040	0.731410
Ag1731	Ag173	0.513390	0.686600	0.767310
Ag1741	Ag174	0.443080	0.569480	0.782780
Ag1751	Ag175	0.740910	0.934740	0.575910
Ag1761	Ag176	0.645320	0.861200	0.612280
Ag1771	Ag177	0.766880	0.926850	0.645470
Ag1781	Ag178	0.519940	0.979640	0.994820
Ag1791	Ag179	0.458100	0.966940	0.935120
Ag1801	Ag180	0.587160	0.094010	0.979890
N3011	N301	0.113280	0.094800	0.570280
N3021	N302	0.111800	0.066500	0.554300
N3031	N303	0.973900	0.467300	0.551600
N3041	N304	0.927970	0.419980	0.528350
N3051	N305	0.923960	0.973300	0.544060
N3061	N306	0.970320	0.019800	0.567520
N3071	N307	0.573000	0.176380	0.848380
N3081	N308	0.572360	0.149650	0.831410
N3091	N309	0.653110	0.209960	0.764670
N3101	N310	0.675480	0.251840	0.755720
N3111	N311	0.368520	0.175690	0.845010
N3121	N312	0.315090	0.140050	0.835340
N3131	N313	0.337890	0.566550	0.383840
N3141	N314	0.315630	0.561570	0.357600
N3151	N315	0.192990	0.352150	0.311740
N3161	N316	0.242700	0.380730	0.315230
N3171	N317	0.491000	0.759570	0.443170
N3181	N318	0.467800	0.715400	0.449000
N3191	N319	0.825250	0.201480	0.207930
N3201	N320	0.870780	0.222550	0.218530
N3211	N321	0.778860	0.117570	0.313030
N3221	N322	0.781930	0.149360	0.323690
N3231	N323	0.813670	0.204650	0.098120
N3241	N324	0.783150	0.183100	0.117650
N3251	N325	0.306080	0.211560	0.652840
N3261	N326	0.326400	0.253210	0.645010
N3271	N327	0.430080	0.394560	0.710840
N3281	N328	0.448160	0.404990	0.741750
N3291	N329	0.409570	0.290870	0.762640
N3301	N330	0.373890	0.243310	0.739400
N3311	N331	0.773820	0.248960	0.686180
N3321	N332	0.794810	0.255090	0.713700
N3331	N333	0.950720	0.352980	0.738500
N3341	N334	0.979600	0.372200	0.717600
N3351	N335	0.912540	0.339550	0.629490
N3361	N336	0.864000	0.314680	0.623480
N3371	N337	0.357340	0.642540	0.863280
N3381	N338	0.311000	0.591820	0.842020
N3391	N339	0.161510	0.505950	0.822060
N3401	N340	0.154180	0.528590	0.832570
N3411	N341	0.289560	0.684140	0.892300
N3421	N342	0.338910	0.710970	0.899480
N3431	N343	0.561200	0.696800	0.720800
N3441	N344	0.555200	0.718170	0.735170
N3451	N345	0.467070	0.653830	0.797300
N3461	N346	0.439200	0.607780	0.804180
N3471	N347	0.448010	0.533500	0.759110
N3481	N348	0.482970	0.560530	0.741500
N3491	N349	0.664060	0.882970	0.552430
N3501	N350	0.625600	0.856300	0.567500
N3511	N351	0.657450	0.852530	0.652580
N3521	N352	0.702820	0.874980	0.666000
N3531	N353	0.821080	0.964250	0.619330
N3541	N354	0.811800	0.971300	0.593500
N3551	N355	0.443490	0.902870	0.968560
N3561	N356	0.419640	0.897060	0.942300
N3571	N357	0.501290	0.036520	0.923810
N3581	N358	0.550300	0.086870	0.942570
N3591	N359	0.628850	0.100620	0.011670
N3601	N360	0.601560	0.054770	0.017330
C7511	C751	0.171000	0.173600	0.613400
C7521	C752	0.160200	0.136900	0.591700
C7531	C753	0.190500	0.137400	0.591900
C7541	C754	0.160300	0.093100	0.566800
C7551	C755	0.171600	0.073500	0.555300
C7561	C756	0.019000	0.495600	0.604000
C7571	C757	0.974200	0.452900	0.575900
C7581	C758	0.928200	0.396300	0.569300
C7591	C759	0.900500	0.377900	0.539200
C7601	C760	0.848300	0.320000	0.518300
C7611	C761	0.826900	0.903900	0.528400
C7621	C762	0.882000	0.954900	0.549500
C7631	C763	0.900700	0.988500	0.575800
C7641	C764	0.956200	0.028200	0.586600
C7651	C765	0.999100	0.077000	0.615100
C7661	C766	0.553000	0.179580	0.894980
C7671	C767	0.558570	0.159370	0.873940
C7681	C768	0.549500	0.121590	0.874090
C7691	C769	0.559580	0.117900	0.847080
C7701	C770	0.558000	0.084400	0.834600
C7711	C771	0.652300	0.154700	0.758600
C7721	C772	0.670100	0.198680	0.752380
C7731	C773	0.704810	0.234600	0.735410
C7741	C774	0.706700	0.267300	0.737800
C7751	C775	0.736900	0.313500	0.725000
C7761	C776	0.456400	0.254300	0.833300
C7771	C777	0.397600	0.210800	0.828000
C7781	C778	0.362600	0.199010	0.807010
C7791	C779	0.312780	0.156000	0.812180
C7801	C780	0.261000	0.127400	0.797600
C7811	C781	0.335900	0.518300	0.405200
C7821	C782	0.318600	0.523400	0.380000
C7831	C783	0.281700	0.487400	0.351700
C7841	C784	0.281100	0.512800	0.337900
C7851	C785	0.249900	0.495000	0.306700
C7861	C786	0.152200	0.365000	0.323800
C7871	C787	0.199400	0.384790	0.324590
C7881	C788	0.254900	0.436940	0.336840
C7891	C789	0.280100	0.431700	0.330600
C7901	C790	0.339400	0.475400	0.337200
C7911	C791	0.571800	0.858300	0.466500
C7921	C792	0.535300	0.803000	0.466100
C7931	C793	0.542600	0.788000	0.488400
C7941	C794	0.497400	0.731300	0.475900
C7951	C795	0.484400	0.693400	0.488800
C7961	C796	0.745400	0.153400	0.223800
C7971	C797	0.798240	0.180760	0.229000
C7981	C798	0.825400	0.188000	0.253600
C7991	C799	0.871900	0.215400	0.246100
C8001	C800	0.916200	0.234100	0.262900
C8011	C801	0.793000	0.097900	0.269100
C8021	C802	0.794900	0.128300	0.287000
C8031	C803	0.807700	0.167000	0.280300
C8041	C804	0.799550	0.179800	0.304150
C8051	C805	0.807200	0.218100	0.309300
C8061	C806	0.812200	0.211900	0.045100
C8071	C807	0.785300	0.189400	0.070100
C8081	C808	0.733300	0.154600	0.072100
C8091	C809	0.735100	0.153700	0.102600
C8101	C810	0.690200	0.123600	0.117600
C8111	C811	0.221900	0.109800	0.637500
C8121	C812	0.255300	0.163200	0.633900
C8131	C813	0.243900	0.175600	0.613100
C8141	C814	0.289600	0.232500	0.620900
C8151	C815	0.301300	0.269400	0.607700
C8161	C816	0.410600	0.419500	0.677700
C8171	C817	0.429500	0.422700	0.709000
C8181	C818	0.446500	0.452600	0.737300
C8191	C819	0.457210	0.439420	0.758030
C8201	C820	0.475600	0.457700	0.792100
C8211	C821	0.448600	0.327700	0.818500
C8221	C822	0.412000	0.282700	0.789700
C8231	C823	0.376680	0.228060	0.784140
C8241	C824	0.355300	0.207000	0.753100
C8251	C825	0.314200	0.150400	0.733800
C8261	C826	0.706100	0.230000	0.663500
C8271	C827	0.736800	0.239300	0.689700
C8281	C828	0.736000	0.241200	0.720400
C8291	C829	0.772100	0.250100	0.734200
C8301	C830	0.790100	0.258300	0.767200
C8311	C831	0.962000	0.368000	0.793600
C8321	C832	0.984750	0.381910	0.765860
C8331	C833	0.037200	0.421000	0.764600
C8341	C834	0.032500	0.414100	0.733000
C8351	C835	0.076000	0.445300	0.717500
C8361	C836	0.995100	0.402600	0.611700
C8371	C837	0.940600	0.370400	0.610400
C8381	C838	0.910200	0.364900	0.591700
C8391	C839	0.863400	0.329900	0.600900
C8401	C840	0.814700	0.308100	0.589000
C8411	C841	0.456000	0.716200	0.880800
C8421	C842	0.401300	0.662100	0.861600
C8431	C843	0.383400	0.624700	0.838300
C8441	C844	0.327000	0.582000	0.827600
C8451	C845	0.286200	0.531000	0.801400
C8461	C846	0.117800	0.433100	0.780900
C8471	C847	0.120600	0.465600	0.797200
C8481	C848	0.086160	0.459600	0.790560
C8491	C849	0.109500	0.501500	0.814000
C8501	C850	0.091500	0.517200	0.818300
C8511	C851	0.251100	0.699800	0.903900
C8521	C852	0.298500	0.719130	0.905830
C8531	C853	0.352770	0.769540	0.920310
C8541	C854	0.377390	0.762900	0.915890
C8551	C855	0.436300	0.802500	0.924800
C8561	C856	0.606300	0.712300	0.682200
C8571	C857	0.592400	0.726200	0.702200
C8581	C858	0.608200	0.769400	0.704200
C8591	C859	0.583200	0.761900	0.725900
C8601	C860	0.583800	0.793800	0.737800
C8611	C861	0.474900	0.714700	0.805200
C8621	C862	0.452600	0.666800	0.810000
C8631	C863	0.414800	0.629400	0.825400
C8641	C864	0.407900	0.593300	0.821000
C8651	C865	0.374400	0.545100	0.832500
C8661	C866	0.387600	0.451200	0.776200
C8671	C867	0.430000	0.491000	0.760800
C8681	C868	0.453400	0.490400	0.744000
C8691	C869	0.486500	0.535060	0.731960
C8701	C870	0.523100	0.557000	0.711500
C8711	C871	0.671900	0.885600	0.498900
C8721	C872	0.640000	0.863800	0.522400
C8731	C873	0.586000	0.823700	0.517700
C8741	C874	0.577100	0.818600	0.546300
C8751	C875	0.526000	0.781000	0.555600
C8761	C876	0.564100	0.779500	0.656600
C8771	C877	0.618200	0.812400	0.666000
C8781	C878	0.639600	0.809900	0.687100
C8791	C879	0.693400	0.850600	0.686400
C8801	C880	0.735600	0.866200	0.704000
C8811	C881	0.873500	0.966900	0.642800
C8821	C882	0.855900	0.972400	0.617700
C8831	C883	0.868700	0.982400	0.589900
C8841	C884	0.840400	0.982200	0.575600
C8851	C885	0.839500	0.992200	0.545500
C8861	C886	0.438100	0.850300	0.988800
C8871	C887	0.421200	0.857000	0.964400
C8881	C888	0.381880	0.820710	0.935790
C8891	C889	0.382900	0.847860	0.923360
C8901	C890	0.350700	0.830800	0.892900
C8911	C891	0.443900	0.994000	0.870500
C8921	C892	0.493800	0.041700	0.896900
C8931	C893	0.539760	0.098160	0.898920
C8941	C894	0.573200	0.123600	0.928200
C8951	C895	0.628800	0.183600	0.943200
C8961	C896	0.719900	0.199900	0.030200
C8971	C897	0.680600	0.143300	0.029900
C8981	C898	0.686000	0.123900	0.047900
C8991	C899	0.635600	0.068850	0.039250
C9001	C900	0.615600	0.024400	0.049000
H9011	H901	0.140700	0.162000	0.607100
H9021	H902	0.174200	0.171300	0.634300
H9031	H903	0.205000	0.211300	0.612900
H9041	H904	0.141000	0.041000	0.537800
H9051	H905	0.204800	0.101800	0.548600
H9061	H906	0.176500	0.064200	0.571500
H9071	H907	0.045100	0.531400	0.600700
H9081	H908	0.004500	0.491700	0.620800
H9091	H909	0.037500	0.492500	0.609600
H9101	H910	0.839800	0.321000	0.498200
H9111	H911	0.853200	0.302800	0.515600
H9121	H912	0.818300	0.299000	0.527300
H9131	H913	0.828400	0.890200	0.511800
H9141	H914	0.802700	0.876700	0.539600
H9151	H915	0.813100	0.910800	0.519700
H9161	H916	0.034300	0.097100	0.616000
H9171	H917	0.002300	0.100900	0.614200
H9181	H918	0.988300	0.064200	0.633500
H9191	H919	0.562200	0.205600	0.887600
H9201	H920	0.515400	0.149000	0.896200
H9211	H921	0.577600	0.197800	0.915400
H9221	H922	0.566300	0.090000	0.814900
H9231	H923	0.585200	0.096200	0.849200
H9241	H924	0.521700	0.045800	0.831900
H9251	H925	0.627700	0.137000	0.771700
H9261	H926	0.633100	0.127700	0.739200
H9271	H927	0.684100	0.170200	0.769100
H9281	H928	0.728600	0.326900	0.731100
H9291	H929	0.776100	0.343000	0.732700
H9301	H930	0.725800	0.301000	0.702400
H9311	H931	0.468600	0.251100	0.849500
H9321	H932	0.463000	0.251000	0.814400
H9331	H933	0.476700	0.290000	0.839700
H9341	H934	0.232700	0.098000	0.806700
H9351	H935	0.266300	0.153300	0.801000
H9361	H936	0.249900	0.112200	0.775500
H9371	H937	0.362900	0.551100	0.422600
H9381	H938	0.352000	0.513900	0.397900
H9391	H939	0.304100	0.486300	0.411600
H9401	H940	0.258700	0.522700	0.304400
H9411	H941	0.210700	0.460300	0.304200
H9421	H942	0.259700	0.490000	0.290900
H9431	H943	0.118300	0.326000	0.313300
H9441	H944	0.155300	0.384800	0.312900
H9451	H945	0.152100	0.371400	0.344900
H9461	H946	0.344900	0.459500	0.330400
H9471	H947	0.356700	0.493400	0.359300
H9481	H948	0.355700	0.502200	0.326100
H9491	H949	0.557000	0.856500	0.448300
H9501	H950	0.608000	0.880900	0.466500
H9511	H951	0.575000	0.874300	0.484900
H9521	H952	0.450900	0.656300	0.475200
H9531	H953	0.479300	0.694400	0.509100
H9541	H954	0.514600	0.704700	0.490700
H9551	H955	0.737500	0.155500	0.204200
H9561	H956	0.748900	0.171900	0.240400
H9571	H957	0.715800	0.115200	0.223600
H9581	H958	0.942400	0.252000	0.251000
H9591	H959	0.901100	0.202700	0.266200
H9601	H960	0.934600	0.259800	0.282800
H9611	H961	0.782200	0.073400	0.280000
H9621	H962	0.829100	0.123600	0.266500
H9631	H963	0.766400	0.076300	0.248900
H9641	H964	0.797500	0.217100	0.328000
H9651	H965	0.784000	0.208000	0.291800
H9661	H966	0.845500	0.255000	0.311700
H9671	H967	0.849200	0.235200	0.052200
H9681	H968	0.813800	0.233400	0.039400
H9691	H969	0.791100	0.181800	0.027100
H9701	H970	0.702800	0.130300	0.139300
H9711	H971	0.658000	0.084500	0.107300
H9721	H972	0.680900	0.136700	0.116000
H9731	H973	0.243200	0.116400	0.654200
H9741	H974	0.188900	0.089500	0.642400
H9751	H975	0.211700	0.088400	0.618300
H9761	H976	0.337700	0.307400	0.619100
H9771	H977	0.299800	0.263500	0.586100
H9781	H978	0.274000	0.261600	0.609200
H9791	H979	0.402000	0.396000	0.661400
H9801	H980	0.378100	0.404300	0.676600
H9811	H981	0.439800	0.456100	0.674900
H9821	H982	0.479600	0.441400	0.799600
H9831	H983	0.510700	0.497500	0.799000
H9841	H984	0.448700	0.446300	0.800000
H9851	H985	0.466900	0.360000	0.813700
H9861	H986	0.427300	0.316500	0.832600
H9871	H987	0.476000	0.336600	0.828200
H9881	H988	0.307000	0.147900	0.712100
H9891	H989	0.328500	0.142500	0.737000
H9901	H990	0.280300	0.124000	0.739700
H9911	H991	0.716300	0.231300	0.645000
H9921	H992	0.666900	0.194100	0.660000
H9931	H993	0.714800	0.258300	0.668100
H9941	H994	0.816400	0.264100	0.769500
H9951	H995	0.807300	0.290100	0.780200
H9961	H996	0.758400	0.225800	0.773400
H9971	H997	0.922500	0.337500	0.786400
H9981	H998	0.970100	0.357700	0.805800
H9991	H999	0.978900	0.399800	0.806300
H10001	H1000	0.059800	0.430400	0.695200
H10011	H1001	0.102300	0.483700	0.723600
H10021	H1002	0.094800	0.442500	0.723500
H10031	H1003	0.004600	0.397000	0.627800
H10041	H1004	0.993500	0.390500	0.591800
H10051	H1005	0.022800	0.441400	0.616000
H10061	H1006	0.788200	0.283500	0.600500
H10071	H1007	0.826200	0.338500	0.591500
H10081	H1008	0.798000	0.288200	0.567200
H10091	H1009	0.453900	0.731800	0.894700
H10101	H1010	0.478900	0.739900	0.867800
H10111	H1011	0.471900	0.713000	0.892900
H10121	H1012	0.249700	0.508500	0.799600
H10131	H1013	0.286500	0.510500	0.805400
H10141	H1014	0.295700	0.540800	0.782300
H10151	H1015	0.148700	0.447300	0.791800
H10161	H1016	0.119500	0.436200	0.759900
H10171	H1017	0.083500	0.394800	0.780300
H10181	H1018	0.116200	0.547800	0.836800
H10191	H1019	0.054400	0.486000	0.820400
H10201	H1020	0.091900	0.527900	0.800400
H10211	H1021	0.217400	0.661600	0.891600
H10221	H1022	0.256700	0.722100	0.894200
H10231	H1023	0.248100	0.703100	0.924600
H10241	H1024	0.438300	0.783400	0.917500
H10251	H1025	0.451200	0.817500	0.947100
H10261	H1026	0.457400	0.832200	0.915200
H10271	H1027	0.589500	0.680100	0.685600
H10281	H1028	0.646000	0.743200	0.687600
H10291	H1029	0.592600	0.704800	0.660600
H10301	H1030	0.561500	0.777500	0.752200
H10311	H1031	0.568800	0.793500	0.720700
H10321	H1032	0.621300	0.831500	0.748400
H10331	H1033	0.501500	0.733600	0.793500
H10341	H1034	0.492500	0.739900	0.825200
H10351	H1035	0.444900	0.701500	0.793800
H10361	H1036	0.379200	0.528800	0.825000
H10371	H1037	0.335800	0.518100	0.825100
H10381	H1038	0.385900	0.556500	0.855000
H10391	H1039	0.379800	0.463500	0.786100
H10401	H1040	0.400300	0.447700	0.791600
H10411	H1041	0.354300	0.415600	0.760900
H10421	H1042	0.541100	0.589700	0.708000
H10431	H1043	0.501200	0.529300	0.691900
H10441	H1044	0.550800	0.566500	0.721700
H10451	H1045	0.710300	0.914500	0.509400
H10461	H1046	0.657000	0.855900	0.484700
H10471	H1047	0.668700	0.900400	0.487300
H10481	H1048	0.534400	0.789000	0.578000
H10491	H1049	0.509700	0.786000	0.548300
H10501	H1050	0.500300	0.743300	0.546600
H10511	H1051	0.562400	0.791600	0.640800
H10521	H1052	0.537300	0.741200	0.648300
H10531	H1053	0.556000	0.783400	0.674400
H10541	H1054	0.769400	0.896500	0.698100
H10551	H1055	0.742600	0.877600	0.726000
H10561	H1056	0.722600	0.834800	0.699200
H10571	H1057	0.857000	0.959200	0.659200
H10581	H1058	0.861600	0.936700	0.634500
H10591	H1059	0.913200	0.000800	0.650800
H10601	H1060	0.815200	0.988900	0.541700
H10611	H1061	0.876400	0.029000	0.546000
H10621	H1062	0.826200	0.965300	0.529100
H10631	H1063	0.466400	0.883300	0.006300
H10641	H1064	0.406600	0.818900	0.995700
H10651	H1065	0.452600	0.844400	0.980600
H10661	H1066	0.361400	0.860000	0.891200
H10671	H1067	0.358100	0.824000	0.876300
H10681	H1068	0.311700	0.797500	0.891200
H10691	H1069	0.419200	0.960300	0.876300
H10701	H1070	0.425600	0.997300	0.865100
H10711	H1071	0.454400	0.993500	0.852900
H10721	H1072	0.642100	0.188900	0.964200
H10731	H1073	0.653900	0.197700	0.931400
H10741	H1074	0.626300	0.203000	0.943700
H10751	H1075	0.703100	0.199100	0.014400
H10761	H1076	0.730000	0.219500	0.050500
H10771	H1077	0.752600	0.218500	0.026100
H10781	H1078	0.577000	0.988900	0.038300
H10791	H1079	0.636700	0.025200	0.044100
H10801	H1080	0.620300	0.030600	0.071300
Ag1811	Ag181	0.975570	0.541710	0.483140
Ag1821	Ag182	0.019420	0.541130	0.547830
Ag1831	Ag183	0.918870	0.407140	0.984050
Ag1841	Ag184	0.266710	0.100740	0.864270
Ag1851	Ag185	0.311960	0.107940	0.931300
Ag1861	Ag186	0.391570	0.170050	0.882320
Ag1871	Ag187	0.485320	0.902250	0.261270
Ag1881	Ag188	0.495780	0.846110	0.219970
Ag1891	Ag189	0.552430	0.955900	0.206630
Ag1901	Ag190	0.143730	0.306620	0.111850
Ag1911	Ag191	0.228610	0.417960	0.166890
Ag1921	Ag192	0.274490	0.389390	0.140640
Ag1931	Ag193	0.147940	0.843590	0.614090
Ag1941	Ag194	0.206860	0.885420	0.558960
Ag1951	Ag195	0.181620	0.934140	0.582700
Ag1961	Ag196	0.662270	0.315550	0.040200
Ag1971	Ag197	0.646660	0.369420	0.072540
Ag1981	Ag198	0.771000	0.443480	0.093700
Ag1991	Ag199	0.964340	0.847580	0.171800
Ag2001	Ag200	0.900520	0.736890	0.187350
Ag2011	Ag201	0.855080	0.720340	0.115960
Ag2021	Ag202	0.291340	0.022750	0.393710
Ag2031	Ag203	0.246080	0.013390	0.326790
Ag2041	Ag204	0.160300	0.943080	0.373600
Ag2051	Ag205	0.665000	0.240910	0.306170
Ag2061	Ag206	0.533040	0.145320	0.284120
Ag2071	Ag207	0.621410	0.266880	0.340030
Ag2081	Ag208	0.025120	0.019940	0.040300
Ag2091	Ag209	0.022980	0.958100	0.991160
Ag2101	Ag210	0.107270	0.087160	0.993150
N3611	N361	0.043000	0.613280	0.518480
N3621	N362	0.057500	0.611800	0.545300
N3631	N363	0.922300	0.473900	0.006600
N3641	N364	0.899620	0.427970	0.007990
N3651	N365	0.879900	0.423960	0.450660
N3661	N366	0.902800	0.470320	0.450520
N3671	N367	0.224620	0.073000	0.896620
N3681	N368	0.240950	0.072360	0.922710
N3691	N369	0.388440	0.153110	0.943150
N3701	N370	0.419760	0.175480	0.923640
N3711	N371	0.023510	0.868520	0.692830
N3721	N372	0.979750	0.815090	0.675040
N3731	N373	0.454050	0.837890	0.271340
N3741	N374	0.458030	0.815630	0.254060
N3751	N375	0.381250	0.692990	0.340840
N3761	N376	0.427470	0.742700	0.361970
N3771	N377	0.547830	0.991000	0.231430
N3781	N378	0.518800	0.967800	0.252400
N3791	N379	0.117320	0.325250	0.123770
N3801	N380	0.152250	0.370780	0.148230
N3811	N381	0.965830	0.278860	0.161290
N3821	N382	0.958240	0.281930	0.132570
N3831	N383	0.215550	0.313670	0.109020
N3841	N384	0.165500	0.283150	0.100050
N3851	N385	0.153240	0.806080	0.594520
N3861	N386	0.181390	0.826400	0.573190
N3871	N387	0.219240	0.930080	0.535520
N3881	N388	0.206410	0.948160	0.543170
N3891	N389	0.146930	0.909570	0.618700
N3901	N390	0.134490	0.873890	0.630580
N3911	N391	0.587640	0.273820	0.024860
N3921	N392	0.581110	0.294810	0.039720
N3931	N393	0.712220	0.450720	0.097740
N3941	N394	0.762000	0.479600	0.107400
N3951	N395	0.783050	0.412540	0.072990
N3961	N396	0.740520	0.364000	0.049320
N3971	N397	0.994060	0.857340	0.214800
N3981	N398	0.968980	0.811000	0.219180
N3991	N399	0.839450	0.661510	0.155560
N4001	N400	0.821610	0.654180	0.125590
N4011	N401	0.897260	0.789560	0.105420
N4021	N402	0.939430	0.838910	0.127940
N4031	N403	0.340400	0.061200	0.364400
N4041	N404	0.320030	0.055200	0.337030
N4051	N405	0.169770	0.967070	0.313240
N4061	N406	0.135020	0.939200	0.331420
N4071	N407	0.188900	0.948010	0.414510
N4081	N408	0.241470	0.982970	0.422440
N4091	N409	0.611630	0.164060	0.281090
N4101	N410	0.558100	0.125600	0.269300
N4111	N411	0.504870	0.157450	0.304920
N4121	N412	0.536820	0.202820	0.327840
N4131	N413	0.701750	0.321080	0.356830
N4141	N414	0.718300	0.311800	0.340500
N4151	N415	0.974930	0.943490	0.040620
N4161	N416	0.977340	0.919640	0.022580
N4171	N417	0.077480	0.001290	0.964770
N4181	N418	0.107730	0.050300	0.963430
N4191	N419	0.117180	0.128850	0.028230
N4201	N420	0.084230	0.101560	0.046790
C9011	C901	0.057600	0.671000	0.497400
C9021	C902	0.068500	0.660200	0.523300
C9031	C903	0.098600	0.690500	0.553100
C9041	C904	0.093500	0.660300	0.567200
C9051	C905	0.116300	0.671600	0.598100
C9061	C906	0.915000	0.519000	0.023400
C9071	C907	0.898300	0.474200	0.021300
C9081	C908	0.858900	0.428200	0.031900
C9091	C909	0.861300	0.400500	0.022600
C9101	C910	0.830000	0.348300	0.028300
C9111	C911	0.798500	0.326900	0.423000
C9121	C912	0.832500	0.382000	0.427100
C9131	C913	0.824900	0.400700	0.412200
C9141	C914	0.869600	0.456200	0.428000
C9151	C915	0.884000	0.499100	0.422100
C9161	C916	0.158020	0.053000	0.873420
C9171	C917	0.184630	0.058570	0.899200
C9181	C918	0.175410	0.049500	0.927910
C9191	C919	0.212500	0.059580	0.941680
C9201	C920	0.223400	0.058000	0.973600
C9211	C921	0.393700	0.152300	0.997600
C9221	C922	0.417720	0.170100	0.971420
C9231	C923	0.469400	0.204810	0.970210
C9241	C924	0.468900	0.206700	0.939400
C9251	C925	0.511900	0.236900	0.923400
C9261	C926	0.123100	0.956400	0.702100
C9271	C927	0.069600	0.897600	0.686800
C9281	C928	0.055590	0.862600	0.663590
C9291	C929	0.000600	0.812780	0.656780
C9301	C930	0.963400	0.761000	0.633600
C9311	C931	0.430700	0.835900	0.317600
C9321	C932	0.438600	0.818600	0.295200
C9331	C933	0.430000	0.781700	0.294300
C9341	C934	0.443200	0.781100	0.268300
C9351	C935	0.443200	0.749900	0.254900
C9361	C936	0.328400	0.652200	0.287200
C9371	C937	0.374810	0.699400	0.314610
C9381	C938	0.418060	0.754900	0.317960
C9391	C939	0.449500	0.780100	0.348400
C9401	C940	0.502200	0.839400	0.364000
C9411	C941	0.605300	0.071800	0.213500
C9421	C942	0.569200	0.035300	0.232300
C9431	C943	0.554200	0.042600	0.254600
C9441	C944	0.521500	0.997400	0.266100
C9451	C945	0.495600	0.984400	0.291000
C9461	C946	0.021600	0.245400	0.092000
C9471	C947	0.069240	0.298240	0.117480
C9481	C948	0.071800	0.325400	0.137400
C9491	C949	0.125800	0.371900	0.156500
C9501	C950	0.153300	0.416200	0.182100
C9511	C951	0.023900	0.293000	0.195100
C9521	C952	0.007900	0.294900	0.166600
C9531	C953	0.027400	0.307700	0.140700
C9541	C954	0.995400	0.299550	0.119750
C9551	C955	0.997900	0.307200	0.089100
C9561	C956	0.267100	0.312200	0.100300
C9571	C957	0.215200	0.285300	0.095900
C9581	C958	0.161200	0.233300	0.078700
C9591	C959	0.132500	0.235100	0.081400
C9601	C960	0.072600	0.190200	0.066600
C9611	C961	0.084400	0.721900	0.612100
C9621	C962	0.121400	0.755300	0.592100
C9631	C963	0.130800	0.743900	0.568300
C9641	C964	0.168700	0.789600	0.557100
C9651	C965	0.193600	0.801300	0.531900
C9661	C966	0.232900	0.910600	0.491100
C9671	C967	0.220500	0.929500	0.506800
C9681	C968	0.209200	0.946500	0.493900
C9691	C969	0.199180	0.957210	0.517790
C9701	C970	0.183500	0.975600	0.517900
C9711	C971	0.130100	0.948600	0.620900
C9721	C972	0.122300	0.912000	0.629300
C9731	C973	0.092540	0.876680	0.648620
C9741	C974	0.102200	0.855300	0.648300
C9751	C975	0.080400	0.814200	0.663800
C9761	C976	0.542600	0.206100	0.976100
C9771	C977	0.547100	0.236800	0.997500
C9781	C978	0.515600	0.236000	0.994800
C9791	C979	0.537900	0.272100	0.022000
C9801	C980	0.522900	0.290100	0.031800
C9811	C981	0.668400	0.462000	0.094000
C9821	C982	0.718890	0.484750	0.102840
C9831	C983	0.772600	0.537200	0.116200
C9841	C984	0.799500	0.532500	0.118400
C9851	C985	0.858500	0.576000	0.130700
C9861	C986	0.883400	0.495100	0.092500
C9871	C987	0.830200	0.440600	0.070200
C9881	C988	0.818500	0.410200	0.045300
C9891	C989	0.762500	0.363400	0.033500
C9901	C990	0.725700	0.314700	0.006600
C9911	C991	0.075200	0.956000	0.239800
C9921	C992	0.039700	0.901300	0.239200
C9931	C993	0.045100	0.883400	0.258700
C9941	C994	0.999400	0.827000	0.245000
C9951	C995	0.984800	0.786200	0.255200
C9961	C996	0.836900	0.617800	0.184700
C9971	C997	0.823400	0.620600	0.155000
C9981	C998	0.795600	0.586160	0.126560
C9991	C999	0.795500	0.609500	0.108000
C10001	C1000	0.773200	0.591500	0.074300
C10011	C1001	0.847200	0.751100	0.051300
C10021	C1002	0.892670	0.798500	0.079370
C10031	C1003	0.932460	0.852770	0.083230
C10041	C1004	0.961500	0.877390	0.114490
C10051	C1005	0.011500	0.936300	0.133800
C10061	C1006	0.424100	0.106300	0.394000
C10071	C1007	0.390200	0.092400	0.366200
C10081	C1008	0.404000	0.108200	0.338800
C10091	C1009	0.357300	0.083200	0.321300
C10101	C1010	0.346000	0.083800	0.290000
C10111	C1011	0.169700	0.974900	0.260200
C10121	C1012	0.142600	0.952600	0.285800
C10131	C1013	0.089400	0.914800	0.285400
C10141	C1014	0.086900	0.907900	0.314600
C10151	C1015	0.041900	0.874400	0.329300
C10161	C1016	0.111400	0.887600	0.436400
C10171	C1017	0.169200	0.930000	0.439000
C10181	C1018	0.209400	0.953400	0.463000
C10191	C1019	0.254540	0.986500	0.451440
C10201	C1020	0.311600	0.023100	0.466100
C10211	C1021	0.673000	0.171900	0.286300
C10221	C1022	0.617600	0.140000	0.276200
C10231	C1023	0.568300	0.086000	0.262300
C10241	C1024	0.530800	0.077100	0.258500
C10251	C1025	0.470400	0.026000	0.245000
C10261	C1026	0.407500	0.064100	0.284600
C10271	C1027	0.452200	0.118200	0.305800
C10281	C1028	0.452500	0.139600	0.329700
C10291	C1029	0.507000	0.193400	0.342800
C10301	C1030	0.531600	0.235600	0.369400
C10311	C1031	0.730700	0.373500	0.406600
C10321	C1032	0.738200	0.355900	0.383500
C10331	C1033	0.778800	0.368700	0.386300
C10341	C1034	0.764800	0.340400	0.358200
C10351	C1035	0.794000	0.339500	0.347300
C10361	C1036	0.949300	0.938100	0.087800
C10371	C1037	0.956800	0.921200	0.064200
C10381	C1038	0.946090	0.881880	0.061170
C10391	C1039	0.959540	0.882900	0.035040
C10401	C1040	0.957800	0.850700	0.019900
C10411	C1041	0.073400	0.943900	0.949900
C10421	C1042	0.096900	0.993800	0.952100
C10431	C1043	0.140840	0.039760	0.941600
C10441	C1044	0.145000	0.073200	0.949600
C10451	C1045	0.185600	0.128800	0.945200
C10461	C1046	0.189700	0.219900	0.020000
C10471	C1047	0.150700	0.180600	0.037300
C10481	C1048	0.138100	0.186000	0.062100
C10491	C1049	0.096350	0.135600	0.066750
C10501	C1050	0.066600	0.115600	0.091200
H10811	H1081	0.033600	0.640700	0.478700
H10821	H1082	0.039900	0.674200	0.502900
H10831	H1083	0.092100	0.705000	0.493700
H10841	H1084	0.103200	0.641000	0.600000
H10851	H1085	0.156200	0.704800	0.603000
H10861	H1086	0.105000	0.676500	0.612300
H10871	H1087	0.944400	0.545100	0.013700
H10881	H1088	0.883700	0.504500	0.012800
H10891	H1089	0.927900	0.537500	0.045000
H10901	H1090	0.841600	0.339800	0.018800
H10911	H1091	0.837600	0.353200	0.050400
H10921	H1092	0.791000	0.318300	0.019300
H10931	H1093	0.816600	0.328400	0.438200
H10941	H1094	0.763100	0.302700	0.426000
H10951	H1095	0.793400	0.313100	0.402300
H10961	H1096	0.918300	0.534300	0.437200
H10971	H1097	0.888100	0.502300	0.401400
H10981	H1098	0.854800	0.488300	0.424100
H10991	H1099	0.174600	0.062200	0.856600
H11001	H1100	0.119200	0.015400	0.866400
H11011	H1101	0.162200	0.077600	0.879800
H11021	H1102	0.251400	0.066300	0.976300
H11031	H1103	0.236000	0.085200	0.989000
H11041	H1104	0.189800	0.021700	0.975900
H11051	H1105	0.356000	0.127700	0.990700
H11061	H1106	0.393900	0.133100	0.005400
H11071	H1107	0.415000	0.184100	0.013900
H11081	H1108	0.497500	0.228600	0.901700
H11091	H1109	0.543400	0.276100	0.933100
H11101	H1110	0.523400	0.225800	0.924800
H11111	H1111	0.119100	0.968600	0.717500
H11121	H1112	0.148600	0.963000	0.712000
H11131	H1113	0.137000	0.976700	0.686700
H11141	H1114	0.926000	0.732700	0.634700
H11151	H1115	0.965300	0.766300	0.613000
H11161	H1116	0.974400	0.749900	0.637700
H11171	H1117	0.440300	0.862900	0.311800
H11181	H1118	0.454100	0.852000	0.338100
H11191	H1119	0.392500	0.804100	0.317800
H11201	H1120	0.454300	0.758700	0.236000
H11211	H1121	0.406500	0.710700	0.250400
H11221	H1122	0.468800	0.759700	0.269700
H11231	H1123	0.305000	0.618300	0.292300
H11241	H1124	0.342400	0.655300	0.270500
H11251	H1125	0.307200	0.652100	0.280700
H11261	H1126	0.514500	0.844900	0.385400
H11271	H1127	0.497400	0.856700	0.363300
H11281	H1128	0.529600	0.855700	0.353500
H11291	H1129	0.608700	0.057000	0.200500
H11301	H1130	0.641500	0.108000	0.227100
H11311	H1131	0.590100	0.075000	0.200700
H11321	H1132	0.475700	0.950900	0.294600
H11331	H1133	0.470200	0.979300	0.284900
H11341	H1134	0.523900	0.014600	0.309900
H11351	H1135	0.033300	0.237500	0.082000
H11361	H1136	0.008500	0.248900	0.077000
H11371	H1137	0.992200	0.215800	0.100600
H11381	H1138	0.191400	0.442400	0.190400
H11391	H1139	0.134900	0.401100	0.198400
H11401	H1140	0.151800	0.434600	0.174800
H11411	H1141	0.002200	0.282200	0.208800
H11421	H1142	0.062600	0.329100	0.205500
H11431	H1143	0.017500	0.266400	0.190100
H11441	H1144	0.969500	0.297500	0.080400
H11451	H1145	0.992200	0.284000	0.076000
H11461	H1146	0.033800	0.345500	0.090500
H11471	H1147	0.297000	0.349200	0.114000
H11481	H1148	0.274400	0.313800	0.080400
H11491	H1149	0.264000	0.291100	0.109300
H11501	H1150	0.063500	0.202800	0.072500
H11511	H1151	0.050700	0.158000	0.073500
H11521	H1152	0.064900	0.180900	0.044200
H11531	H1153	0.089000	0.743200	0.626800
H11541	H1154	0.046500	0.688900	0.599400
H11551	H1155	0.093400	0.711700	0.623300
H11561	H1156	0.218600	0.837700	0.530300
H11571	H1157	0.213700	0.799800	0.536300
H11581	H1158	0.164800	0.774000	0.512400
H11591	H1159	0.240600	0.902000	0.506000
H11601	H1160	0.201500	0.878100	0.473800
H11611	H1161	0.264900	0.939800	0.483700
H11621	H1162	0.180000	0.979600	0.538200
H11631	H1163	0.211700	0.010700	0.513200
H11641	H1164	0.148700	0.948700	0.502400
H11651	H1165	0.153200	0.966900	0.606900
H11661	H1166	0.094700	0.927300	0.610800
H11671	H1167	0.147800	0.976000	0.639400
H11681	H1168	0.094900	0.807000	0.659100
H11691	H1169	0.091500	0.828500	0.686000
H11701	H1170	0.040600	0.780300	0.656300
H11711	H1171	0.571300	0.216300	0.985000
H11721	H1172	0.506900	0.166900	0.972800
H11731	H1173	0.546700	0.214800	0.956500
H11741	H1174	0.546900	0.316400	0.052300
H11751	H1175	0.527100	0.307300	0.017200
H11761	H1176	0.485000	0.258400	0.032600
H11771	H1177	0.636100	0.422500	0.085000
H11781	H1178	0.664300	0.470100	0.112400
H11791	H1179	0.672600	0.478900	0.079100
H11801	H1180	0.864600	0.559800	0.129400
H11811	H1181	0.878700	0.602300	0.118600
H11821	H1182	0.871300	0.594800	0.152300
H11831	H1183	0.876800	0.504600	0.107600
H11841	H1184	0.901700	0.493500	0.103000
H11851	H1185	0.906800	0.522800	0.081400
H11861	H1186	0.687700	0.288200	0.004700
H11871	H1187	0.734700	0.326200	0.987700
H11881	H1188	0.730800	0.298000	0.009800
H11891	H1189	0.059200	0.953900	0.222100
H11901	H1190	0.111100	0.978900	0.239000
H11911	H1191	0.079000	0.971900	0.258900
H11921	H1192	0.950100	0.749700	0.241200
H11931	H1193	0.981100	0.786500	0.276000
H11941	H1194	0.013400	0.795700	0.254900
H11951	H1195	0.856900	0.648700	0.201400
H11961	H1196	0.859600	0.619500	0.183300
H11971	H1197	0.803200	0.583500	0.188700
H11981	H1198	0.779400	0.616200	0.068400
H11991	H1199	0.734000	0.554400	0.068400
H12001	H1200	0.791500	0.591900	0.064000
H12011	H1201	0.825800	0.717400	0.055800
H12021	H1202	0.862500	0.756700	0.034600
H12031	H1203	0.823500	0.748100	0.045000
H12041	H1204	0.020800	0.938300	0.154900
H12051	H1205	0.004100	0.951200	0.133700
H12061	H1206	0.042200	0.957400	0.125200
H12071	H1207	0.403900	0.089500	0.409400
H12081	H1208	0.458400	0.146000	0.402800
H12091	H1209	0.432000	0.092600	0.387800
H12101	H1210	0.309300	0.061500	0.284000
H12111	H1211	0.348100	0.068800	0.275300
H12121	H1212	0.372900	0.121300	0.289800
H12131	H1213	0.208000	0.001500	0.267900
H12141	H1214	0.167300	0.992500	0.252600
H12151	H1215	0.151100	0.944900	0.243400
H12161	H1216	0.054200	0.879200	0.350400
H12171	H1217	0.010700	0.835800	0.317700
H12181	H1218	0.030900	0.885900	0.329400
H12191	H1219	0.093700	0.879800	0.416300
H12201	H1220	0.108700	0.900300	0.452600
H12211	H1221	0.093400	0.854300	0.438700
H12221	H1222	0.333100	0.041100	0.451400
H12231	H1223	0.309300	0.001200	0.471900
H12241	H1224	0.329100	0.050800	0.484300
H12251	H1225	0.700900	0.210300	0.295800
H12261	H1226	0.672300	0.157000	0.301100
H12271	H1227	0.681400	0.168700	0.268300
H12281	H1228	0.456400	0.034400	0.245400
H12291	H1229	0.461400	0.009700	0.223700
H12301	H1230	0.453700	0.000300	0.257000
H12311	H1231	0.421600	0.062400	0.270800
H12321	H1232	0.389000	0.037300	0.296100
H12331	H1233	0.381600	0.056000	0.272600
H12341	H1234	0.571300	0.269400	0.372900
H12351	H1235	0.516600	0.242600	0.365000
H12361	H1236	0.523400	0.222600	0.387800
H12371	H1237	0.697800	0.357000	0.397800
H12381	H1238	0.727100	0.361600	0.424900
H12391	H1239	0.762400	0.413200	0.412400
H12401	H1240	0.773500	0.315200	0.326300
H12411	H1241	0.830400	0.376400	0.347400
H12421	H1242	0.797100	0.326200	0.360900
H12431	H1243	0.960100	0.966400	0.083100
H12441	H1244	0.910900	0.906600	0.087700
H12451	H1245	0.972000	0.952600	0.108200
H12461	H1246	0.970200	0.861400	0.001400
H12471	H1247	0.981800	0.858100	0.034100
H12481	H1248	0.920500	0.811700	0.014200
H12491	H1249	0.042900	0.919200	0.958900
H12501	H1250	0.060500	0.925600	0.928300
H12511	H1251	0.101500	0.954400	0.960900
H12521	H1252	0.177900	0.142100	0.953200
H12531	H1253	0.222500	0.153900	0.956200
H12541	H1254	0.182600	0.126300	0.923300
H12551	H1255	0.188700	0.203100	0.004000
H12561	H1256	0.179500	0.230000	0.010500
H12571	H1257	0.226500	0.252600	0.034100
H12581	H1258	0.038700	0.077000	0.088100
H12591	H1259	0.092600	0.136700	0.111500
H12601	H1260	0.049000	0.120300	0.089700
Ag2111	Ag211	0.558570	0.492430	0.016860
Ag2121	Ag212	0.493300	0.471590	0.952170
Ag2131	Ag213	0.923090	0.934820	0.515950
Ag2141	Ag214	0.736470	0.402440	0.635730
Ag2151	Ag215	0.676640	0.380660	0.568700
Ag2161	Ag216	0.787730	0.509250	0.617680
Ag2171	Ag217	0.140980	0.224050	0.238730
Ag2181	Ag218	0.126140	0.275810	0.280030
Ag2191	Ag219	0.249270	0.345800	0.293370
Ag2201	Ag220	0.694770	0.031880	0.388150
Ag2211	Ag221	0.751070	0.061720	0.333110
Ag2221	Ag222	0.748750	0.133850	0.359360
Ag2231	Ag223	0.729500	0.533850	0.885910
Ag2241	Ag224	0.826460	0.647900	0.941040
Ag2251	Ag225	0.851440	0.598920	0.917300
Ag2261	Ag226	0.775350	0.622070	0.459800
Ag2271	Ag227	0.796880	0.574120	0.427460
Ag2281	Ag228	0.849780	0.677300	0.406300
Ag2291	Ag229	0.175780	0.792540	0.328200
Ag2301	Ag230	0.049540	0.713170	0.312650
Ag2311	Ag231	0.104380	0.739120	0.384040
Ag2321	Ag232	0.129040	0.897630	0.106290
Ag2331	Ag233	0.186600	0.919290	0.173210
Ag2341	Ag234	0.069480	0.786700	0.126400
Ag2351	Ag235	0.434740	0.358830	0.193830
Ag2361	Ag236	0.361200	0.248920	0.215880
Ag2371	Ag237	0.426850	0.281380	0.159970
Ag2381	Ag238	0.479640	0.984820	0.459700
Ag2391	Ag239	0.466940	0.031820	0.508840
Ag2401	Ag240	0.594010	0.114120	0.506850
N4211	N421	0.594800	0.524520	0.981520
N4221	N422	0.566500	0.512200	0.954700
N4231	N423	0.967300	0.915700	0.493400
N4241	N424	0.919980	0.891630	0.492010
N4251	N425	0.473300	0.429240	0.049340
N4261	N426	0.519800	0.452280	0.049480
N4271	N427	0.676380	0.328000	0.603380
N4281	N428	0.649650	0.318240	0.577290
N4291	N429	0.709960	0.445290	0.556850
N4301	N430	0.751840	0.496120	0.576360
N4311	N431	0.675690	0.330680	0.807170
N4321	N432	0.640050	0.304710	0.824960
N4331	N433	0.066550	0.182710	0.228660
N4341	N434	0.061570	0.203970	0.245940
N4351	N435	0.852150	0.040410	0.159160
N4361	N436	0.880730	0.065500	0.138030
N4371	N437	0.259570	0.316400	0.268570
N4381	N438	0.215400	0.266400	0.247600
N4391	N439	0.701480	0.993550	0.376230
N4401	N440	0.722550	0.004020	0.351770
N4411	N441	0.617570	0.804540	0.338710
N4421	N442	0.649360	0.825670	0.367430
N4431	N443	0.704650	0.106530	0.390980
N4441	N444	0.683100	0.065450	0.399950
N4451	N445	0.711560	0.558720	0.905480
N4461	N446	0.753210	0.608200	0.926810
N4471	N447	0.894560	0.683720	0.964480
N4481	N448	0.904990	0.663240	0.956830
N4491	N449	0.790870	0.528230	0.881300
N4501	N450	0.743310	0.503910	0.869420
N4511	N451	0.748960	0.562780	0.475140
N4521	N452	0.755090	0.541390	0.460280
N4531	N453	0.852980	0.614480	0.402260
N4541	N454	0.872200	0.654600	0.392600
N4551	N455	0.839550	0.710060	0.427010
N4561	N456	0.814680	0.691200	0.450680
N4571	N457	0.142540	0.779260	0.285200
N4581	N458	0.091820	0.749800	0.280820
N4591	N459	0.005950	0.683890	0.344440
N4601	N460	0.028590	0.696020	0.374410
N4611	N461	0.184140	0.791840	0.394580
N4621	N462	0.210970	0.811490	0.372060
N4631	N463	0.196800	0.976000	0.135600
N4641	N464	0.218170	0.983000	0.162970
N4651	N465	0.153830	0.856530	0.186760
N4661	N466	0.107780	0.803600	0.168580
N4671	N467	0.033500	0.774390	0.085490
N4681	N468	0.060530	0.819030	0.077560
N4691	N469	0.382970	0.330540	0.218910
N4701	N470	0.356300	0.288800	0.230700
N4711	N471	0.352530	0.199950	0.195080
N4721	N472	0.374980	0.208980	0.172160
N4731	N473	0.464250	0.344920	0.143170
N4741	N474	0.471300	0.377800	0.159500
N4751	N475	0.402870	0.934310	0.459380
N4761	N476	0.397060	0.954760	0.477420
N4771	N477	0.536520	0.112710	0.535230
N4781	N478	0.586870	0.144300	0.536570
N4791	N479	0.600620	0.088950	0.471770
N4801	N480	0.554770	0.037440	0.453210
C10511	C1051	0.673600	0.560200	0.002600
C10521	C1052	0.636900	0.545200	0.976700
C10531	C1053	0.637400	0.545500	0.946900
C10541	C1054	0.593100	0.526300	0.932800
C10551	C1055	0.573500	0.518200	0.901900
C10561	C1056	0.995600	0.891600	0.476600
C10571	C1057	0.952900	0.877000	0.478700
C10581	C1058	0.896300	0.827000	0.468100
C10591	C1059	0.877900	0.838700	0.477400
C10601	C1060	0.820000	0.801700	0.471700
C10611	C1061	0.403900	0.375500	0.077000
C10621	C1062	0.454900	0.405400	0.072900
C10631	C1063	0.488500	0.412700	0.087800
C10641	C1064	0.528200	0.441600	0.072000
C10651	C1065	0.577000	0.461900	0.077900
C10661	C1066	0.679580	0.284600	0.626580
C10671	C1067	0.659370	0.285430	0.600800
C10681	C1068	0.621590	0.247500	0.572090
C10691	C1069	0.617900	0.270820	0.558320
C10701	C1070	0.584400	0.249800	0.526400
C10711	C1071	0.654700	0.396100	0.502400
C10721	C1072	0.698680	0.446300	0.528580
C10731	C1073	0.734600	0.499190	0.529790
C10741	C1074	0.767300	0.529500	0.560600
C10751	C1075	0.813500	0.588500	0.576600
C10761	C1076	0.754300	0.421000	0.797900
C10771	C1077	0.710800	0.382800	0.813200
C10781	C1078	0.699010	0.392000	0.836410
C10791	C1079	0.656000	0.343820	0.843220
C10801	C1080	0.627400	0.329800	0.866400
C10811	C1081	0.018300	0.113100	0.182400
C10821	C1082	0.023400	0.143400	0.204800
C10831	C1083	0.987400	0.135700	0.205700
C10841	C1084	0.012800	0.174900	0.231700
C10851	C1085	0.995000	0.188300	0.245100
C10861	C1086	0.865000	0.041200	0.212800
C10871	C1087	0.884790	0.060200	0.185390
C10881	C1088	0.936940	0.100100	0.182040
C10891	C1089	0.931700	0.101100	0.151600
C10901	C1090	0.975400	0.138200	0.136000
C10911	C1091	0.358300	0.391800	0.286500
C10921	C1092	0.303000	0.336900	0.267700
C10931	C1093	0.288000	0.299600	0.245400
C10941	C1094	0.231300	0.255400	0.233900
C10951	C1095	0.193400	0.204600	0.209000
C10961	C1096	0.653400	0.929600	0.408000
C10971	C1097	0.680760	0.951760	0.382520
C10981	C1098	0.688000	0.934400	0.362600
C10991	C1099	0.715400	0.969300	0.343500
C11001	C1100	0.734100	0.971200	0.317900
C11011	C1101	0.597900	0.828800	0.304900
C11021	C1102	0.628300	0.841300	0.333400
C11031	C1103	0.667000	0.886700	0.359300
C11041	C1104	0.679800	0.875650	0.380250
C11051	C1105	0.718100	0.908800	0.410900
C11061	C1106	0.711900	0.166800	0.399700
C11071	C1107	0.689400	0.119300	0.404100
C11081	C1108	0.654600	0.082500	0.421300
C11091	C1109	0.653700	0.051100	0.418600
C11101	C1110	0.623600	0.006000	0.433400
C11111	C1111	0.609800	0.472300	0.887900
C11121	C1112	0.663200	0.529300	0.907900
C11131	C1113	0.675600	0.562500	0.931700
C11141	C1114	0.732500	0.611600	0.942900
C11151	C1115	0.769400	0.661700	0.968100
C11161	C1116	0.919500	0.741800	0.008900
C11171	C1117	0.922700	0.713700	0.993200
C11181	C1118	0.952600	0.715300	0.006100
C11191	C1119	0.939420	0.681390	0.982210
C11201	C1120	0.957700	0.665600	0.982100
C11211	C1121	0.827700	0.509200	0.879100
C11221	C1122	0.782700	0.493000	0.870700
C11231	C1123	0.728060	0.443920	0.851380
C11241	C1124	0.707000	0.453900	0.851700
C11251	C1125	0.650400	0.416600	0.836200
C11261	C1126	0.730000	0.566500	0.523900
C11271	C1127	0.739300	0.549600	0.502500
C11281	C1128	0.741200	0.520800	0.505200
C11291	C1129	0.750100	0.515900	0.478000
C11301	C1130	0.758300	0.491100	0.468200
C11311	C1131	0.868000	0.574400	0.406000
C11321	C1132	0.881910	0.616050	0.397160
C11331	C1133	0.921000	0.656400	0.383800
C11341	C1134	0.914100	0.681100	0.381600
C11351	C1135	0.945300	0.727800	0.369300
C11361	C1136	0.902600	0.790900	0.407500
C11371	C1137	0.870400	0.760000	0.429800
C11381	C1138	0.864900	0.773200	0.454700
C11391	C1139	0.829900	0.729000	0.466500
C11401	C1140	0.808100	0.719100	0.493400
C11411	C1141	0.216200	0.835400	0.260200
C11421	C1142	0.162100	0.800500	0.260800
C11431	C1143	0.124700	0.786400	0.241300
C11441	C1144	0.082000	0.754400	0.255000
C11451	C1145	0.031000	0.729600	0.244800
C11461	C1146	0.933100	0.652200	0.315300
C11471	C1147	0.965600	0.668400	0.345000
C11481	C1148	0.959600	0.669040	0.373440
C11491	C1149	0.001500	0.687500	0.392000
C11501	C1150	0.017200	0.698900	0.425700
C11511	C1151	0.199800	0.795900	0.448700
C11521	C1152	0.219130	0.813300	0.420630
C11531	C1153	0.269540	0.849230	0.416770
C11541	C1154	0.262900	0.847010	0.385510
C11551	C1155	0.302500	0.877700	0.366200
C11561	C1156	0.212300	0.030100	0.106000
C11571	C1157	0.226200	0.024000	0.133800
C11581	C1158	0.269400	0.065200	0.161200
C11591	C1159	0.261900	0.036000	0.178700
C11601	C1160	0.293800	0.056000	0.210000
C11611	C1161	0.214700	0.909500	0.239800
C11621	C1162	0.166800	0.856800	0.214200
C11631	C1163	0.129400	0.804000	0.214600
C11641	C1164	0.093300	0.772300	0.185400
C11651	C1165	0.045100	0.712600	0.170700
C11661	C1166	0.951200	0.675000	0.063600
C11671	C1167	0.991000	0.730200	0.061000
C11681	C1168	0.990400	0.746400	0.037000
C11691	C1169	0.035060	0.803100	0.048560
C11701	C1170	0.057000	0.845500	0.033900
C11711	C1171	0.385600	0.386700	0.213700
C11721	C1172	0.363800	0.341400	0.223800
C11731	C1173	0.323700	0.306000	0.237700
C11741	C1174	0.318600	0.272300	0.241500
C11751	C1175	0.281000	0.225400	0.255000
C11761	C1176	0.279500	0.122900	0.215400
C11771	C1177	0.312400	0.146400	0.194200
C11781	C1178	0.309900	0.122800	0.170300
C11791	C1179	0.350600	0.164200	0.157200
C11801	C1180	0.366200	0.162200	0.130600
C11811	C1181	0.466900	0.324100	0.093400
C11821	C1182	0.472400	0.354700	0.116500
C11831	C1183	0.482400	0.392500	0.113700
C11841	C1184	0.482200	0.406600	0.141800
C11851	C1185	0.492200	0.446700	0.152700
C11861	C1186	0.350300	0.861500	0.412200
C11871	C1187	0.357000	0.892600	0.435800
C11881	C1188	0.320710	0.884920	0.438830
C11891	C1189	0.347860	0.924500	0.464960
C11901	C1190	0.330800	0.937900	0.480100
C11911	C1191	0.494000	0.123500	0.550100
C11921	C1192	0.541700	0.144800	0.547900
C11931	C1193	0.598160	0.199240	0.558400
C11941	C1194	0.623600	0.195400	0.550400
C11951	C1195	0.683600	0.240400	0.554800
C11961	C1196	0.699900	0.169700	0.480000
C11971	C1197	0.643300	0.113400	0.462700
C11981	C1198	0.623900	0.076000	0.437900
C11991	C1199	0.568850	0.029600	0.433250
C12001	C1200	0.524400	0.975400	0.408800
H12611	H1261	0.662000	0.554900	0.021300
H12621	H1262	0.671300	0.537000	0.997100
H12631	H1263	0.711300	0.598400	0.006300
H12641	H1264	0.541000	0.503200	0.900000
H12651	H1265	0.601800	0.553200	0.897000
H12661	H1266	0.564200	0.492700	0.887700
H12671	H1267	0.031400	0.930700	0.486300
H12681	H1268	0.991700	0.870900	0.487200
H12691	H1269	0.992500	0.882900	0.455000
H12701	H1270	0.821000	0.822800	0.481200
H12711	H1271	0.802800	0.787200	0.449600
H12721	H1272	0.799000	0.771700	0.480700
H12731	H1273	0.390200	0.378400	0.061800
H12741	H1274	0.376700	0.337100	0.074000
H12751	H1275	0.410800	0.391100	0.097700
H12761	H1276	0.597100	0.481100	0.062800
H12771	H1277	0.600900	0.486700	0.098600
H12781	H1278	0.564200	0.430700	0.075900
H12791	H1279	0.705600	0.318000	0.643400
H12801	H1280	0.649000	0.252800	0.633600
H12811	H1281	0.697800	0.282400	0.620200
H12821	H1282	0.590000	0.275100	0.523700
H12831	H1283	0.596200	0.247000	0.511000
H12841	H1284	0.545800	0.213900	0.524100
H12851	H1285	0.637000	0.365300	0.509300
H12861	H1286	0.627700	0.388500	0.494600
H12871	H1287	0.670200	0.401100	0.486100
H12881	H1288	0.826900	0.595800	0.598300
H12891	H1289	0.843000	0.610300	0.566900
H12901	H1290	0.801000	0.598600	0.575200
H12911	H1291	0.751100	0.401600	0.782500
H12921	H1292	0.751000	0.436600	0.788000
H12931	H1293	0.790000	0.450300	0.813300
H12941	H1294	0.598000	0.291300	0.865300
H12951	H1295	0.653300	0.352300	0.887000
H12961	H1296	0.612200	0.336700	0.862300
H12971	H1297	0.051100	0.128500	0.188200
H12981	H1298	0.013900	0.116000	0.161900
H12991	H1299	0.986300	0.074700	0.182200
H13001	H1300	0.022700	0.218300	0.264000
H13011	H1301	0.960300	0.156100	0.249600
H13021	H1302	0.990000	0.199100	0.230300
H13031	H1303	0.826000	0.012700	0.207700
H13041	H1304	0.884800	0.071900	0.229500
H13051	H1305	0.871400	0.026500	0.219300
H13061	H1306	0.959500	0.129100	0.114600
H13071	H1307	0.993400	0.134100	0.136700
H13081	H1308	0.002200	0.176100	0.146500
H13091	H1309	0.356500	0.408200	0.299500
H13101	H1310	0.380900	0.414400	0.272900
H13111	H1311	0.374300	0.389400	0.299300
H13121	H1312	0.156300	0.181100	0.205400
H13131	H1313	0.194400	0.185300	0.215100
H13141	H1314	0.204700	0.214000	0.190100
H13151	H1315	0.655500	0.951300	0.418000
H13161	H1316	0.671900	0.931500	0.423000
H13171	H1317	0.615200	0.891600	0.399400
H13181	H1318	0.752000	0.001000	0.309600
H13191	H1319	0.702700	0.936500	0.301600
H13201	H1320	0.759800	0.977000	0.325200
H13211	H1321	0.573400	0.793400	0.291200
H13221	H1322	0.623600	0.857100	0.294500
H13231	H1323	0.576300	0.827400	0.309900
H13241	H1324	0.717100	0.889100	0.419600
H13251	H1325	0.708000	0.916200	0.424000
H13261	H1326	0.755000	0.943300	0.409500
H13271	H1327	0.735200	0.183000	0.386000
H13281	H1328	0.733400	0.194000	0.419600
H13291	H1329	0.681800	0.154700	0.390700
H13301	H1330	0.630300	0.991000	0.427500
H13311	H1331	0.584500	0.977200	0.426500
H13321	H1332	0.636700	0.020700	0.455800
H13331	H1333	0.616400	0.462200	0.873200
H13341	H1334	0.589500	0.447100	0.900600
H13351	H1335	0.588400	0.470100	0.876700
H13361	H1336	0.807400	0.688300	0.969700
H13371	H1337	0.763500	0.677400	0.963700
H13381	H1338	0.761600	0.652400	0.987600
H13391	H1339	0.896000	0.734600	0.994000
H13401	H1340	0.904300	0.727700	0.026200
H13411	H1341	0.956100	0.781200	0.016300
H13421	H1342	0.941400	0.641800	0.961800
H13431	H1343	0.997500	0.698500	0.986800
H13441	H1344	0.946300	0.646300	0.997600
H13451	H1345	0.860000	0.546300	0.893100
H13461	H1346	0.816500	0.483900	0.889200
H13471	H1347	0.836600	0.508400	0.860600
H13481	H1348	0.647900	0.435800	0.840900
H13491	H1349	0.642500	0.405500	0.814000
H13501	H1350	0.624000	0.384300	0.843700
H13511	H1351	0.731300	0.586300	0.515000
H13521	H1352	0.694100	0.534100	0.527200
H13531	H1353	0.758300	0.590200	0.543500
H13541	H1354	0.764100	0.494600	0.447700
H13551	H1355	0.790100	0.509900	0.482800
H13561	H1356	0.725800	0.452400	0.467400
H13571	H1357	0.837500	0.551100	0.415000
H13581	H1358	0.857700	0.551900	0.387600
H13591	H1359	0.899800	0.593500	0.420900
H13601	H1360	0.930400	0.735200	0.370600
H13611	H1361	0.983700	0.760100	0.381400
H13621	H1362	0.942500	0.719000	0.347700
H13631	H1363	0.897000	0.769200	0.392400
H13641	H1364	0.890500	0.798700	0.397000
H13651	H1365	0.941400	0.825400	0.418600
H13661	H1366	0.783500	0.683000	0.495300
H13671	H1367	0.838500	0.747000	0.512300
H13681	H1368	0.788200	0.721000	0.490200
H13691	H1369	0.231800	0.837100	0.277900
H13701	H1370	0.239900	0.872100	0.261000
H13711	H1371	0.213000	0.820100	0.241100
H13721	H1372	0.008500	0.708900	0.258800
H13731	H1373	0.010500	0.705100	0.224000
H13741	H1374	0.040800	0.758500	0.245100
H13751	H1375	0.947300	0.655500	0.298600
H13761	H1376	0.936200	0.676300	0.316700
H13771	H1377	0.894800	0.614500	0.311300
H13781	H1378	0.047800	0.711000	0.431600
H13791	H1379	0.986000	0.665600	0.431600
H13801	H1380	0.027900	0.727500	0.436000
H13811	H1381	0.161600	0.770000	0.444200
H13821	H1382	0.222100	0.827900	0.465400
H13831	H1383	0.203100	0.778500	0.455000
H13841	H1384	0.283400	0.865900	0.345100
H13851	H1385	0.317500	0.870400	0.366300
H13861	H1386	0.332200	0.917000	0.374800
H13871	H1387	0.180100	0.994500	0.090600
H13881	H1388	0.243200	0.055600	0.097200
H13891	H1389	0.204800	0.044200	0.112200
H13901	H1390	0.277500	0.025300	0.216000
H13911	H1391	0.293500	0.072800	0.224700
H13921	H1392	0.331500	0.083100	0.210200
H13931	H1393	0.233600	0.940100	0.232100
H13941	H1394	0.239900	0.914700	0.247400
H13951	H1395	0.201500	0.907700	0.256600
H13961	H1396	0.028800	0.703800	0.149600
H13971	H1397	0.018100	0.693000	0.182300
H13981	H1398	0.056500	0.701500	0.170600
H13991	H1399	0.963500	0.677400	0.083700
H14001	H1400	0.947700	0.656100	0.047400
H14011	H1401	0.915600	0.654700	0.061300
H14021	H1402	0.089700	0.881700	0.048600
H14031	H1403	0.029300	0.837400	0.028100
H14041	H1404	0.066500	0.844800	0.015700
H14051	H1405	0.414500	0.405100	0.204200
H14061	H1406	0.355900	0.371200	0.198900
H14071	H1407	0.400400	0.413100	0.231700
H14081	H1408	0.289000	0.211000	0.254600
H14091	H1409	0.286000	0.237700	0.276300
H14101	H1410	0.243300	0.196700	0.243000
H14111	H1411	0.291600	0.150800	0.229200
H14121	H1412	0.241200	0.092900	0.203900
H14131	H1413	0.283400	0.109000	0.227400
H14141	H1414	0.396500	0.198400	0.127100
H14151	H1415	0.377600	0.151600	0.135000
H14161	H1416	0.334800	0.135600	0.112200
H14171	H1417	0.459200	0.300000	0.102200
H14181	H1418	0.436700	0.302200	0.075100
H14191	H1419	0.500800	0.350000	0.087600
H14201	H1420	0.488900	0.447200	0.173700
H14211	H1421	0.529000	0.483000	0.152600
H14221	H1422	0.465300	0.436200	0.139100
H14231	H1423	0.383300	0.877000	0.416900
H14241	H1424	0.318900	0.823200	0.412300
H14251	H1425	0.344400	0.863800	0.391800
H14261	H1426	0.360000	0.968800	0.498600
H14271	H1427	0.324000	0.947700	0.465900
H14281	H1428	0.297500	0.906300	0.485800
H14291	H1429	0.460300	0.084000	0.541100
H14301	H1430	0.497300	0.132200	0.571700
H14311	H1431	0.493500	0.140600	0.539100
H14321	H1432	0.688900	0.224700	0.546800
H14331	H1433	0.697700	0.266300	0.543800
H14341	H1434	0.703000	0.259300	0.576700
H14351	H1435	0.699100	0.184700	0.496000
H14361	H1436	0.719500	0.169000	0.489500
H14371	H1437	0.718500	0.192400	0.465900
H14381	H1438	0.488900	0.950600	0.411900
H14391	H1439	0.525200	0.981100	0.388500
H14401	H1440	0.530600	0.959300	0.410300
