data_YEYFEP_clean_PM
_symmetry_space_group_name_H-M	'P1'
_cell_length_a	12.572900
_cell_length_b	12.572900
_cell_length_c	25.944000
_cell_angle_alpha	90.000000
_cell_angle_beta	90.000000
_cell_angle_gamma	90.000000
_symmetry_Int_Tables_number 1

loop_
_symmetry_equiv_pos_as_xyz
'x,y,z'

loop_
_atom_site_label
_atom_site_type_symbol
_atom_site_fract_x
_atom_site_fract_y
_atom_site_fract_z
Ho11	Ho1	0.143530	0.957240	0.448380
Ho21	Ho2	0.856470	0.042760	0.448380
Ho31	Ho3	0.957240	0.856470	0.551620
Ho41	Ho4	0.042760	0.143530	0.551620
Ho51	Ho5	0.356470	0.457240	0.051620
Ho61	Ho6	0.643530	0.542760	0.051620
Ho71	Ho7	0.542760	0.356470	0.948380
Ho81	Ho8	0.457240	0.643530	0.948380
H11	H1	0.960900	0.839300	0.443600
H21	H2	0.343500	0.460200	0.221700
H31	H3	0.347200	0.463100	0.310500
H41	H4	0.368500	0.528100	0.450200
H51	H5	0.277600	0.395100	0.495800
H61	H6	0.391000	0.172700	0.403300
H71	H7	0.507000	0.293500	0.365400
H81	H8	0.039100	0.160700	0.443600
H91	H9	0.656500	0.539800	0.221700
H101	H10	0.652800	0.536900	0.310500
H111	H11	0.631500	0.471900	0.450200
H121	H12	0.722400	0.604900	0.495800
H131	H13	0.609000	0.827300	0.403300
H141	H14	0.493000	0.706500	0.365400
H151	H15	0.839300	0.039100	0.556400
H161	H16	0.460200	0.656500	0.778300
H171	H17	0.463100	0.652800	0.689500
H181	H18	0.528100	0.631500	0.549800
H191	H19	0.395100	0.722400	0.504200
H201	H20	0.172700	0.609000	0.596700
H211	H21	0.293500	0.493000	0.634600
H221	H22	0.160700	0.960900	0.556400
H231	H23	0.539800	0.343500	0.778300
H241	H24	0.536900	0.347200	0.689500
H251	H25	0.471900	0.368500	0.549800
H261	H26	0.604900	0.277600	0.504200
H271	H27	0.827300	0.391000	0.596700
H281	H28	0.706500	0.507000	0.634600
H291	H29	0.539100	0.339300	0.056400
H301	H30	0.156500	0.960200	0.278300
H311	H31	0.152800	0.963100	0.189500
H321	H32	0.131500	0.028100	0.049800
H331	H33	0.222400	0.895100	0.004200
H341	H34	0.109000	0.672700	0.096700
H351	H35	0.993000	0.793500	0.134600
H361	H36	0.460900	0.660700	0.056400
H371	H37	0.843500	0.039800	0.278300
H381	H38	0.847200	0.036900	0.189500
H391	H39	0.868500	0.971900	0.049800
H401	H40	0.777600	0.104900	0.004200
H411	H41	0.891000	0.327300	0.096700
H421	H42	0.007000	0.206500	0.134600
H431	H43	0.660700	0.539100	0.943600
H441	H44	0.039800	0.156500	0.721700
H451	H45	0.036900	0.152800	0.810500
H461	H46	0.971900	0.131500	0.950200
H471	H47	0.104900	0.222400	0.995800
H481	H48	0.327300	0.109000	0.903300
H491	H49	0.206500	0.993000	0.865400
H501	H50	0.339300	0.460900	0.943600
H511	H51	0.960200	0.843500	0.721700
H521	H52	0.963100	0.847200	0.810500
H531	H53	0.028100	0.868500	0.950200
H541	H54	0.895100	0.777600	0.995800
H551	H55	0.672700	0.891000	0.903300
H561	H56	0.793500	0.007000	0.865400
C11	C1	0.405800	0.476300	0.239320
C21	C2	0.409400	0.477800	0.292520
C31	C3	0.443700	0.422500	0.402550
C41	C4	0.376000	0.456600	0.441720
C51	C5	0.319300	0.375400	0.467780
C61	C6	0.321500	0.269500	0.454440
C71	C7	0.389800	0.243100	0.414300
C81	C8	0.456600	0.315400	0.389400
C91	C9	0.250400	0.191000	0.477400
C101	C10	0.594200	0.523700	0.239320
C111	C11	0.590600	0.522200	0.292520
C121	C12	0.556300	0.577500	0.402550
C131	C13	0.624000	0.543400	0.441720
C141	C14	0.680700	0.624600	0.467780
C151	C15	0.678500	0.730500	0.454440
C161	C16	0.610200	0.756900	0.414300
C171	C17	0.543400	0.684600	0.389400
C181	C18	0.749600	0.809000	0.477400
C191	C19	0.476300	0.594200	0.760680
C201	C20	0.477800	0.590600	0.707480
C211	C21	0.422500	0.556300	0.597450
C221	C22	0.456600	0.624000	0.558280
C231	C23	0.375400	0.680700	0.532220
C241	C24	0.269500	0.678500	0.545560
C251	C25	0.243100	0.610200	0.585700
C261	C26	0.315400	0.543400	0.610600
C271	C27	0.191000	0.749600	0.522600
C281	C28	0.523700	0.405800	0.760680
C291	C29	0.522200	0.409400	0.707480
C301	C30	0.577500	0.443700	0.597450
C311	C31	0.543400	0.376000	0.558280
C321	C32	0.624600	0.319300	0.532220
C331	C33	0.730500	0.321500	0.545560
C341	C34	0.756900	0.389800	0.585700
C351	C35	0.684600	0.456600	0.610600
C361	C36	0.809000	0.250400	0.522600
C371	C37	0.094200	0.976300	0.260680
C381	C38	0.090600	0.977800	0.207480
C391	C39	0.056300	0.922500	0.097450
C401	C40	0.124000	0.956600	0.058280
C411	C41	0.180700	0.875400	0.032220
C421	C42	0.178500	0.769500	0.045560
C431	C43	0.110200	0.743100	0.085700
C441	C44	0.043400	0.815400	0.110600
C451	C45	0.249600	0.691000	0.022600
C461	C46	0.905800	0.023700	0.260680
C471	C47	0.909400	0.022200	0.207480
C481	C48	0.943700	0.077500	0.097450
C491	C49	0.876000	0.043400	0.058280
C501	C50	0.819300	0.124600	0.032220
C511	C51	0.821500	0.230500	0.045560
C521	C52	0.889800	0.256900	0.085700
C531	C53	0.956600	0.184600	0.110600
C541	C54	0.750400	0.309000	0.022600
C551	C55	0.023700	0.094200	0.739320
C561	C56	0.022200	0.090600	0.792520
C571	C57	0.077500	0.056300	0.902550
C581	C58	0.043400	0.124000	0.941720
C591	C59	0.124600	0.180700	0.967780
C601	C60	0.230500	0.178500	0.954440
C611	C61	0.256900	0.110200	0.914300
C621	C62	0.184600	0.043400	0.889400
C631	C63	0.309000	0.249600	0.977400
C641	C64	0.976300	0.905800	0.739320
C651	C65	0.977800	0.909400	0.792520
C661	C66	0.922500	0.943700	0.902550
C671	C67	0.956600	0.876000	0.941720
C681	C68	0.875400	0.819300	0.967780
C691	C69	0.769500	0.821500	0.954440
C701	C70	0.743100	0.889800	0.914300
C711	C71	0.815400	0.956600	0.889400
C721	C72	0.691000	0.750400	0.977400
C731	C73	0.500000	0.500000	0.155700
C741	C74	0.500000	0.500000	0.213290
C751	C75	0.500000	0.500000	0.320400
C761	C76	0.500000	0.500000	0.844300
C771	C77	0.500000	0.500000	0.786710
C781	C78	0.500000	0.500000	0.679600
C791	C79	0.000000	0.000000	0.344300
C801	C80	0.000000	0.000000	0.286710
C811	C81	0.000000	0.000000	0.179600
C821	C82	0.000000	0.000000	0.655700
C831	C83	0.000000	0.000000	0.713290
C841	C84	0.000000	0.000000	0.820400
N11	N1	0.500000	0.500000	0.375400
N21	N2	0.500000	0.500000	0.624600
N31	N3	0.000000	0.000000	0.124600
N41	N4	0.000000	0.000000	0.875400
O11	O1	0.975500	0.892600	0.462520
O21	O2	0.188900	0.223200	0.511260
O31	O3	0.258000	0.096500	0.463490
O41	O4	0.585900	0.494600	0.132720
O51	O5	0.024500	0.107400	0.462520
O61	O6	0.811100	0.776800	0.511260
O71	O7	0.742000	0.903500	0.463490
O81	O8	0.414100	0.505400	0.132720
O91	O9	0.892600	0.024500	0.537480
O101	O10	0.223200	0.811100	0.488740
O111	O11	0.096500	0.742000	0.536510
O121	O12	0.494600	0.414100	0.867280
O131	O13	0.107400	0.975500	0.537480
O141	O14	0.776800	0.188900	0.488740
O151	O15	0.903500	0.258000	0.536510
O161	O16	0.505400	0.585900	0.867280
O171	O17	0.524500	0.392600	0.037480
O181	O18	0.311100	0.723200	0.988740
O191	O19	0.242000	0.596500	0.036510
O201	O20	0.914100	0.994600	0.367280
O211	O21	0.475500	0.607400	0.037480
O221	O22	0.688900	0.276800	0.988740
O231	O23	0.758000	0.403500	0.036510
O241	O24	0.085900	0.005400	0.367280
O251	O25	0.607400	0.524500	0.962520
O261	O26	0.276800	0.311100	0.011260
O271	O27	0.403500	0.242000	0.963490
O281	O28	0.005400	0.914100	0.632720
O291	O29	0.392600	0.475500	0.962520
O301	O30	0.723200	0.688900	0.011260
O311	O31	0.596500	0.758000	0.963490
O321	O32	0.994600	0.085900	0.632720
