data_YEYLUJ_clean_PM
_symmetry_space_group_name_H-M	'P1'
_cell_length_a	16.119000
_cell_length_b	20.898000
_cell_length_c	13.325000
_cell_angle_alpha	90.000000
_cell_angle_beta	90.000000
_cell_angle_gamma	90.000000
_symmetry_Int_Tables_number 1

loop_
_symmetry_equiv_pos_as_xyz
'x,y,z'

loop_
_atom_site_label
_atom_site_type_symbol
_atom_site_fract_x
_atom_site_fract_y
_atom_site_fract_z
Ag11	Ag1	0.504390	0.236140	0.563770
N11	N1	0.409000	0.246800	0.428700
C11	C1	0.410000	0.295100	0.363900
C21	C2	0.354700	0.200400	0.410700
C31	C3	0.360000	0.298100	0.281200
C41	C4	0.303300	0.199600	0.328900
C51	C5	0.304800	0.249100	0.262100
C61	C6	0.250400	0.249600	0.172700
C71	C7	0.226900	0.192900	0.124400
C81	C8	0.216800	0.305400	0.132700
C91	C9	0.173200	0.194700	0.045200
C101	C10	0.162300	0.302600	0.055000
N21	N2	0.138200	0.248200	0.010300
N31	N3	0.516700	0.133500	0.618800
C111	C11	0.566100	0.118100	0.692100
C121	C12	0.469600	0.086900	0.586000
C131	C13	0.570500	0.058900	0.736400
C141	C14	0.469300	0.026000	0.626800
C151	C15	0.520700	0.010600	0.703700
C161	C16	0.520400	0.945600	0.750100
C171	C17	0.568800	0.931200	0.830200
C181	C18	0.471300	0.897400	0.714900
C191	C19	0.563300	0.872500	0.874600
C201	C20	0.469500	0.839600	0.763200
N41	N4	0.513600	0.826100	0.844000
H11	H1	0.446800	0.328600	0.375400
H21	H2	0.351300	0.166700	0.456100
H31	H3	0.363100	0.333000	0.238100
H41	H4	0.267500	0.165300	0.318800
H51	H5	0.247900	0.153900	0.146400
H61	H6	0.231800	0.344900	0.159300
H71	H7	0.160200	0.156300	0.013600
H81	H8	0.140300	0.340900	0.031300
H91	H9	0.601300	0.149800	0.716400
H101	H10	0.434300	0.095200	0.532300
H111	H11	0.607600	0.051700	0.788800
H121	H12	0.433400	0.995200	0.601100
H131	H13	0.605800	0.961400	0.855000
H141	H14	0.438900	0.903900	0.658000
H151	H15	0.596700	0.864600	0.930200
H161	H16	0.435000	0.807900	0.737500
Ag21	Ag2	0.495610	0.736140	0.936230
N51	N5	0.591000	0.746800	0.071300
C211	C21	0.590000	0.795100	0.136100
C221	C22	0.645300	0.700400	0.089300
C231	C23	0.640000	0.798100	0.218800
C241	C24	0.696700	0.699600	0.171100
C251	C25	0.695200	0.749100	0.237900
C261	C26	0.749600	0.749600	0.327300
C271	C27	0.773100	0.692900	0.375600
C281	C28	0.783200	0.805400	0.367300
C291	C29	0.826800	0.694700	0.454800
C301	C30	0.837700	0.802600	0.445000
N61	N6	0.861800	0.748200	0.489700
N71	N7	0.483300	0.633500	0.881200
C311	C31	0.433900	0.618100	0.807900
C321	C32	0.530400	0.586900	0.914000
C331	C33	0.429500	0.558900	0.763600
C341	C34	0.530700	0.526000	0.873200
C351	C35	0.479300	0.510600	0.796300
C361	C36	0.479600	0.445600	0.749900
C371	C37	0.431200	0.431200	0.669800
C381	C38	0.528700	0.397400	0.785100
C391	C39	0.436700	0.372500	0.625400
C401	C40	0.530500	0.339600	0.736800
N81	N8	0.486400	0.326100	0.656000
H171	H17	0.553200	0.828600	0.124600
H181	H18	0.648700	0.666700	0.043900
H191	H19	0.636900	0.833000	0.261900
H201	H20	0.732500	0.665300	0.181200
H211	H21	0.752100	0.653900	0.353600
H221	H22	0.768200	0.844900	0.340700
H231	H23	0.839800	0.656300	0.486400
H241	H24	0.859700	0.840900	0.468700
H251	H25	0.398700	0.649800	0.783600
H261	H26	0.565700	0.595200	0.967700
H271	H27	0.392400	0.551700	0.711200
H281	H28	0.566600	0.495200	0.898900
H291	H29	0.394200	0.461400	0.645000
H301	H30	0.561100	0.403900	0.842000
H311	H31	0.403300	0.364600	0.569800
H321	H32	0.565000	0.307900	0.762500
Ag31	Ag3	0.004390	0.236140	0.936230
N91	N9	0.909000	0.246800	0.071300
C411	C41	0.910000	0.295100	0.136100
C421	C42	0.854700	0.200400	0.089300
C431	C43	0.860000	0.298100	0.218800
C441	C44	0.803300	0.199600	0.171100
C451	C45	0.804800	0.249100	0.237900
C461	C46	0.750400	0.249600	0.327300
C471	C47	0.726900	0.192900	0.375600
C481	C48	0.716800	0.305400	0.367300
C491	C49	0.673200	0.194700	0.454800
C501	C50	0.662300	0.302600	0.445000
N101	N10	0.638200	0.248200	0.489700
N111	N11	0.016700	0.133500	0.881200
C511	C51	0.066100	0.118100	0.807900
C521	C52	0.969600	0.086900	0.914000
C531	C53	0.070500	0.058900	0.763600
C541	C54	0.969300	0.026000	0.873200
C551	C55	0.020700	0.010600	0.796300
C561	C56	0.020400	0.945600	0.749900
C571	C57	0.068800	0.931200	0.669800
C581	C58	0.971300	0.897400	0.785100
C591	C59	0.063300	0.872500	0.625400
C601	C60	0.969500	0.839600	0.736800
N121	N12	0.013600	0.826100	0.656000
H331	H33	0.946800	0.328600	0.124600
H341	H34	0.851300	0.166700	0.043900
H351	H35	0.863100	0.333000	0.261900
H361	H36	0.767500	0.165300	0.181200
H371	H37	0.747900	0.153900	0.353600
H381	H38	0.731800	0.344900	0.340700
H391	H39	0.660200	0.156300	0.486400
H401	H40	0.640300	0.340900	0.468700
H411	H41	0.101300	0.149800	0.783600
H421	H42	0.934300	0.095200	0.967700
H431	H43	0.107600	0.051700	0.711200
H441	H44	0.933400	0.995200	0.898900
H451	H45	0.105800	0.961400	0.645000
H461	H46	0.938900	0.903900	0.842000
H471	H47	0.096700	0.864600	0.569800
H481	H48	0.935000	0.807900	0.762500
Ag41	Ag4	0.995610	0.736140	0.563770
N131	N13	0.091000	0.746800	0.428700
C611	C61	0.090000	0.795100	0.363900
C621	C62	0.145300	0.700400	0.410700
C631	C63	0.140000	0.798100	0.281200
C641	C64	0.196700	0.699600	0.328900
C651	C65	0.195200	0.749100	0.262100
C661	C66	0.249600	0.749600	0.172700
C671	C67	0.273100	0.692900	0.124400
C681	C68	0.283200	0.805400	0.132700
C691	C69	0.326800	0.694700	0.045200
C701	C70	0.337700	0.802600	0.055000
N141	N14	0.361800	0.748200	0.010300
N151	N15	0.983300	0.633500	0.618800
C711	C71	0.933900	0.618100	0.692100
C721	C72	0.030400	0.586900	0.586000
C731	C73	0.929500	0.558900	0.736400
C741	C74	0.030700	0.526000	0.626800
C751	C75	0.979300	0.510600	0.703700
C761	C76	0.979600	0.445600	0.750100
C771	C77	0.931200	0.431200	0.830200
C781	C78	0.028700	0.397400	0.714900
C791	C79	0.936700	0.372500	0.874600
C801	C80	0.030500	0.339600	0.763200
N161	N16	0.986400	0.326100	0.844000
H491	H49	0.053200	0.828600	0.375400
H501	H50	0.148700	0.666700	0.456100
H511	H51	0.136900	0.833000	0.238100
H521	H52	0.232500	0.665300	0.318800
H531	H53	0.252100	0.653900	0.146400
H541	H54	0.268200	0.844900	0.159300
H551	H55	0.339800	0.656300	0.013600
H561	H56	0.359700	0.840900	0.031300
H571	H57	0.898700	0.649800	0.716400
H581	H58	0.065700	0.595200	0.532300
H591	H59	0.892400	0.551700	0.788800
H601	H60	0.066600	0.495200	0.601100
H611	H61	0.894200	0.461400	0.855000
H621	H62	0.061100	0.403900	0.658000
H631	H63	0.903300	0.364600	0.930200
H641	H64	0.065000	0.307900	0.737500
Ag51	Ag5	0.995610	0.763860	0.063770
N171	N17	0.091000	0.753200	0.928700
C811	C81	0.090000	0.704900	0.863900
C821	C82	0.145300	0.799600	0.910700
C831	C83	0.140000	0.701900	0.781200
C841	C84	0.196700	0.800400	0.828900
C851	C85	0.195200	0.750900	0.762100
C861	C86	0.249600	0.750400	0.672700
C871	C87	0.273100	0.807100	0.624400
C881	C88	0.283200	0.694600	0.632700
C891	C89	0.326800	0.805300	0.545200
C901	C90	0.337700	0.697400	0.555000
N181	N18	0.361800	0.751800	0.510300
N191	N19	0.983300	0.866500	0.118800
C911	C91	0.933900	0.881900	0.192100
C921	C92	0.030400	0.913100	0.086000
C931	C93	0.929500	0.941100	0.236400
C941	C94	0.030700	0.974000	0.126800
C951	C95	0.979300	0.989400	0.203700
C961	C96	0.979600	0.054400	0.250100
C971	C97	0.931200	0.068800	0.330200
C981	C98	0.028700	0.102600	0.214900
C991	C99	0.936700	0.127500	0.374600
C1001	C100	0.030500	0.160400	0.263200
N201	N20	0.986400	0.173900	0.344000
H651	H65	0.053200	0.671400	0.875400
H661	H66	0.148700	0.833300	0.956100
H671	H67	0.136900	0.667000	0.738100
H681	H68	0.232500	0.834700	0.818800
H691	H69	0.252100	0.846100	0.646400
H701	H70	0.268200	0.655100	0.659300
H711	H71	0.339800	0.843700	0.513600
H721	H72	0.359700	0.659100	0.531300
H731	H73	0.898700	0.850200	0.216400
H741	H74	0.065700	0.904800	0.032300
H751	H75	0.892400	0.948300	0.288800
H761	H76	0.066600	0.004800	0.101100
H771	H77	0.894200	0.038600	0.355000
H781	H78	0.061100	0.096100	0.158000
H791	H79	0.903300	0.135400	0.430200
H801	H80	0.065000	0.192100	0.237500
Ag61	Ag6	0.004390	0.263860	0.436230
N211	N21	0.909000	0.253200	0.571300
C1011	C101	0.910000	0.204900	0.636100
C1021	C102	0.854700	0.299600	0.589300
C1031	C103	0.860000	0.201900	0.718800
C1041	C104	0.803300	0.300400	0.671100
C1051	C105	0.804800	0.250900	0.737900
C1061	C106	0.750400	0.250400	0.827300
C1071	C107	0.726900	0.307100	0.875600
C1081	C108	0.716800	0.194600	0.867300
C1091	C109	0.673200	0.305300	0.954800
C1101	C110	0.662300	0.197400	0.945000
N221	N22	0.638200	0.251800	0.989700
N231	N23	0.016700	0.366500	0.381200
C1111	C111	0.066100	0.381900	0.307900
C1121	C112	0.969600	0.413100	0.414000
C1131	C113	0.070500	0.441100	0.263600
C1141	C114	0.969300	0.474000	0.373200
C1151	C115	0.020700	0.489400	0.296300
C1161	C116	0.020400	0.554400	0.249900
C1171	C117	0.068800	0.568800	0.169800
C1181	C118	0.971300	0.602600	0.285100
C1191	C119	0.063300	0.627500	0.125400
C1201	C120	0.969500	0.660400	0.236800
N241	N24	0.013600	0.673900	0.156000
H811	H81	0.946800	0.171400	0.624600
H821	H82	0.851300	0.333300	0.543900
H831	H83	0.863100	0.167000	0.761900
H841	H84	0.767500	0.334700	0.681200
H851	H85	0.747900	0.346100	0.853600
H861	H86	0.731800	0.155100	0.840700
H871	H87	0.660200	0.343700	0.986400
H881	H88	0.640300	0.159100	0.968700
H891	H89	0.101300	0.350200	0.283600
H901	H90	0.934300	0.404800	0.467700
H911	H91	0.107600	0.448300	0.211200
H921	H92	0.933400	0.504800	0.398900
H931	H93	0.105800	0.538600	0.145000
H941	H94	0.938900	0.596100	0.342000
H951	H95	0.096700	0.635400	0.069800
H961	H96	0.935000	0.692100	0.262500
Ag71	Ag7	0.495610	0.763860	0.436230
N251	N25	0.591000	0.753200	0.571300
C1211	C121	0.590000	0.704900	0.636100
C1221	C122	0.645300	0.799600	0.589300
C1231	C123	0.640000	0.701900	0.718800
C1241	C124	0.696700	0.800400	0.671100
C1251	C125	0.695200	0.750900	0.737900
C1261	C126	0.749600	0.750400	0.827300
C1271	C127	0.773100	0.807100	0.875600
C1281	C128	0.783200	0.694600	0.867300
C1291	C129	0.826800	0.805300	0.954800
C1301	C130	0.837700	0.697400	0.945000
N261	N26	0.861800	0.751800	0.989700
N271	N27	0.483300	0.866500	0.381200
C1311	C131	0.433900	0.881900	0.307900
C1321	C132	0.530400	0.913100	0.414000
C1331	C133	0.429500	0.941100	0.263600
C1341	C134	0.530700	0.974000	0.373200
C1351	C135	0.479300	0.989400	0.296300
C1361	C136	0.479600	0.054400	0.249900
C1371	C137	0.431200	0.068800	0.169800
C1381	C138	0.528700	0.102600	0.285100
C1391	C139	0.436700	0.127500	0.125400
C1401	C140	0.530500	0.160400	0.236800
N281	N28	0.486400	0.173900	0.156000
H971	H97	0.553200	0.671400	0.624600
H981	H98	0.648700	0.833300	0.543900
H991	H99	0.636900	0.667000	0.761900
H1001	H100	0.732500	0.834700	0.681200
H1011	H101	0.752100	0.846100	0.853600
H1021	H102	0.768200	0.655100	0.840700
H1031	H103	0.839800	0.843700	0.986400
H1041	H104	0.859700	0.659100	0.968700
H1051	H105	0.398700	0.850200	0.283600
H1061	H106	0.565700	0.904800	0.467700
H1071	H107	0.392400	0.948300	0.211200
H1081	H108	0.566600	0.004800	0.398900
H1091	H109	0.394200	0.038600	0.145000
H1101	H110	0.561100	0.096100	0.342000
H1111	H111	0.403300	0.135400	0.069800
H1121	H112	0.565000	0.192100	0.262500
Ag81	Ag8	0.504390	0.263860	0.063770
N291	N29	0.409000	0.253200	0.928700
C1411	C141	0.410000	0.204900	0.863900
C1421	C142	0.354700	0.299600	0.910700
C1431	C143	0.360000	0.201900	0.781200
C1441	C144	0.303300	0.300400	0.828900
C1451	C145	0.304800	0.250900	0.762100
C1461	C146	0.250400	0.250400	0.672700
C1471	C147	0.226900	0.307100	0.624400
C1481	C148	0.216800	0.194600	0.632700
C1491	C149	0.173200	0.305300	0.545200
C1501	C150	0.162300	0.197400	0.555000
N301	N30	0.138200	0.251800	0.510300
N311	N31	0.516700	0.366500	0.118800
C1511	C151	0.566100	0.381900	0.192100
C1521	C152	0.469600	0.413100	0.086000
C1531	C153	0.570500	0.441100	0.236400
C1541	C154	0.469300	0.474000	0.126800
C1551	C155	0.520700	0.489400	0.203700
C1561	C156	0.520400	0.554400	0.250100
C1571	C157	0.568800	0.568800	0.330200
C1581	C158	0.471300	0.602600	0.214900
C1591	C159	0.563300	0.627500	0.374600
C1601	C160	0.469500	0.660400	0.263200
N321	N32	0.513600	0.673900	0.344000
H1131	H113	0.446800	0.171400	0.875400
H1141	H114	0.351300	0.333300	0.956100
H1151	H115	0.363100	0.167000	0.738100
H1161	H116	0.267500	0.334700	0.818800
H1171	H117	0.247900	0.346100	0.646400
H1181	H118	0.231800	0.155100	0.659300
H1191	H119	0.160200	0.343700	0.513600
H1201	H120	0.140300	0.159100	0.531300
H1211	H121	0.601300	0.350200	0.216400
H1221	H122	0.434300	0.404800	0.032300
H1231	H123	0.607600	0.448300	0.288800
H1241	H124	0.433400	0.504800	0.101100
H1251	H125	0.605800	0.538600	0.355000
H1261	H126	0.438900	0.596100	0.158000
H1271	H127	0.596700	0.635400	0.430200
H1281	H128	0.435000	0.692100	0.237500
