data_YEYMEU_clean_PM
_symmetry_space_group_name_H-M	'P1'
_cell_length_a	12.269000
_cell_length_b	12.269000
_cell_length_c	4.822000
_cell_angle_alpha	90.000000
_cell_angle_beta	90.000000
_cell_angle_gamma	90.000000
_symmetry_Int_Tables_number 1

loop_
_symmetry_equiv_pos_as_xyz
'x,y,z'

loop_
_atom_site_label
_atom_site_type_symbol
_atom_site_fract_x
_atom_site_fract_y
_atom_site_fract_z
C11	C1	0.717600	0.086500	0.285000
C21	C2	0.786600	0.149500	0.441000
H11	H1	0.741600	0.018100	0.229000
H21	H2	0.855600	0.124500	0.489000
C31	C3	0.282400	0.913500	0.285000
C41	C4	0.213400	0.850500	0.441000
H31	H3	0.258400	0.981900	0.229000
H41	H4	0.144400	0.875500	0.489000
C51	C5	0.913500	0.717600	0.285000
C61	C6	0.850500	0.786600	0.441000
H51	H5	0.981900	0.741600	0.229000
H61	H6	0.875500	0.855600	0.489000
C71	C7	0.086500	0.282400	0.285000
C81	C8	0.149500	0.213400	0.441000
H71	H7	0.018100	0.258400	0.229000
H81	H8	0.124500	0.144400	0.489000
C91	C9	0.217600	0.413500	0.285000
C101	C10	0.286600	0.350500	0.441000
H91	H9	0.241600	0.481900	0.229000
H101	H10	0.355600	0.375500	0.489000
C111	C11	0.782400	0.586500	0.285000
C121	C12	0.713400	0.649500	0.441000
H111	H11	0.758400	0.518100	0.229000
H121	H12	0.644400	0.624500	0.489000
C131	C13	0.413500	0.782400	0.285000
C141	C14	0.350500	0.713400	0.441000
H131	H13	0.481900	0.758400	0.229000
H141	H14	0.375500	0.644400	0.489000
C151	C15	0.586500	0.217600	0.285000
C161	C16	0.649500	0.286600	0.441000
H151	H15	0.518100	0.241600	0.229000
H161	H16	0.624500	0.355600	0.489000
Ag11	Ag1	0.500000	0.000000	0.000000
Ag21	Ag2	0.000000	0.500000	0.000000
N11	N1	0.617900	0.117900	0.210000
C171	C17	0.751000	0.251000	0.524000
C181	C18	0.821700	0.321700	0.672000
N21	N2	0.878900	0.378900	0.783000
N31	N3	0.382100	0.882100	0.210000
C191	C19	0.249000	0.749000	0.524000
C201	C20	0.178300	0.678300	0.672000
N41	N4	0.121100	0.621100	0.783000
N51	N5	0.882100	0.617900	0.210000
C211	C21	0.749000	0.751000	0.524000
C221	C22	0.678300	0.821700	0.672000
N61	N6	0.621100	0.878900	0.783000
N71	N7	0.117900	0.382100	0.210000
C231	C23	0.251000	0.249000	0.524000
C241	C24	0.321700	0.178300	0.672000
N81	N8	0.378900	0.121100	0.783000
