data_YEYVOO_manual_PM
_symmetry_space_group_name_H-M	'P1'
_cell_length_a	45.832100
_cell_length_b	45.832100
_cell_length_c	45.832100
_cell_angle_alpha	94.825900
_cell_angle_beta	94.825900
_cell_angle_gamma	146.278000
_symmetry_Int_Tables_number 1

loop_
_symmetry_equiv_pos_as_xyz
'x,y,z'

loop_
_atom_site_label
_atom_site_type_symbol
_atom_site_fract_x
_atom_site_fract_y
_atom_site_fract_z
N11	N1	0.098770	0.553740	0.534510
N21	N2	0.103240	0.574980	0.561420
N31	N3	0.963770	0.496730	0.575700
N41	N4	0.913610	0.449790	0.555800
N51	N5	0.899660	0.374860	0.484120
N61	N6	0.948090	0.405460	0.479150
N71	N7	0.118600	0.334570	0.954570
N81	N8	0.143700	0.370500	0.938000
N91	N9	0.142180	0.335600	0.851980
N101	N10	0.115800	0.287500	0.838700
N111	N11	0.030620	0.173170	0.887790
N121	N12	0.028100	0.184000	0.916300
N131	N13	0.294840	0.426960	0.783200
N141	N14	0.274300	0.434700	0.768800
N151	N15	0.342540	0.527810	0.708550
N161	N16	0.386420	0.552650	0.700470
N171	N17	0.454920	0.536360	0.742080
N181	N18	0.428180	0.502700	0.760480
N191	N19	0.359210	0.639700	0.640510
N201	N20	0.409160	0.685700	0.661260
N211	N21	0.496880	0.836360	0.679040
N221	N22	0.474580	0.842280	0.667460
N231	N23	0.318100	0.705860	0.609160
N241	N24	0.290400	0.657300	0.602700
N251	N25	0.652870	0.052840	0.760110
N261	N26	0.630810	0.020830	0.780040
N271	N27	0.659780	0.085190	0.867170
N281	N28	0.685150	0.133220	0.874370
N291	N29	0.752950	0.226360	0.812310
N301	N30	0.748700	0.206620	0.786320
N311	N31	0.786050	0.690170	0.844820
N321	N32	0.742920	0.669620	0.852740
N331	N33	0.600210	0.563360	0.788370
N341	N34	0.590740	0.546120	0.758260
N351	N35	0.703730	0.584590	0.736920
N361	N36	0.751500	0.620030	0.758130
N371	N37	0.805110	0.181110	0.291620
N381	N38	0.783160	0.134790	0.281750
N391	N39	0.887430	0.225880	0.186310
N401	N40	0.855810	0.223420	0.175830
N411	N41	0.799310	0.191690	0.400200
N421	N42	0.819090	0.221630	0.379920
N431	N43	0.321060	0.631560	0.158820
N441	N44	0.270000	0.585430	0.137830
N451	N45	0.251900	0.520670	0.056770
N461	N46	0.296400	0.542600	0.051000
N471	N47	0.170900	0.554800	0.227100
N481	N48	0.195800	0.552600	0.244200
N491	N49	0.819260	0.421470	0.650130
N501	N50	0.846320	0.420870	0.665990
N511	N51	0.790800	0.346240	0.735040
N521	N52	0.747510	0.322500	0.743410
N531	N53	0.818000	0.625130	0.652730
N541	N54	0.851000	0.677930	0.661730
N551	N55	0.030400	0.071900	0.958700
N561	N56	0.982000	0.025700	0.936100
N571	N57	0.906600	0.882300	0.931300
N581	N58	0.933400	0.882400	0.947400
N591	N59	0.524500	0.015500	0.942400
N601	N60	0.572500	0.061000	0.966900
C11	C1	0.153100	0.562700	0.513600
C21	C2	0.145800	0.576900	0.539500
C31	C3	0.178800	0.612570	0.568170
C41	C4	0.152190	0.610100	0.581490
C51	C5	0.168300	0.639400	0.612700
C61	C6	0.002100	0.547100	0.630600
C71	C7	0.956600	0.501100	0.602900
C81	C8	0.899500	0.456600	0.599500
C91	C9	0.875000	0.426100	0.569700
C101	C10	0.815000	0.372600	0.553400
C111	C11	0.801200	0.283700	0.465900
C121	C12	0.857600	0.323200	0.465000
C131	C13	0.878100	0.319400	0.448900
C141	C14	0.935000	0.371100	0.457500
C151	C15	0.977700	0.389300	0.448400
C161	C16	0.125800	0.336400	0.009400
C171	C17	0.142000	0.362000	0.984000
C181	C18	0.184200	0.418600	0.987200
C191	C19	0.182700	0.420600	0.957500
C201	C20	0.217400	0.469200	0.944800
C211	C21	0.214000	0.428500	0.848300
C221	C22	0.182400	0.374300	0.838900
C231	C23	0.183900	0.352900	0.817200
C241	C24	0.141200	0.298500	0.818100
C251	C25	0.123500	0.254600	0.798700
C261	C26	0.025000	0.119900	0.860300
C271	C27	0.024200	0.139000	0.888800
C281	C28	0.018000	0.127100	0.915700
C291	C29	0.021000	0.157200	0.931800
C301	C30	0.015500	0.160800	0.964500
C311	C31	0.276200	0.381100	0.820700
C321	C32	0.263200	0.395300	0.801300
C331	C33	0.223500	0.383300	0.799400
C341	C34	0.232100	0.409000	0.779300
C351	C35	0.202500	0.411500	0.767800
C361	C36	0.286500	0.525300	0.700000
C371	C37	0.331700	0.543900	0.695400
C381	C38	0.369200	0.581000	0.679800
C391	C39	0.401900	0.583500	0.682600
C401	C40	0.450000	0.616600	0.671000
C411	C41	0.534400	0.596400	0.722200
C421	C42	0.496500	0.554500	0.739400
C431	C43	0.498200	0.531800	0.757000
C441	C44	0.453670	0.498600	0.768870
C451	C45	0.433100	0.463000	0.788700
C461	C46	0.283400	0.540000	0.624200
C471	C47	0.338200	0.595600	0.643600
C481	C48	0.375300	0.612800	0.666100
C491	C49	0.419100	0.669900	0.676400
C501	C50	0.472000	0.710900	0.701300
C511	C51	0.571200	0.882300	0.722300
C521	C52	0.539400	0.879600	0.704400
C531	C53	0.543500	0.913000	0.708300
C541	C54	0.503000	0.888900	0.683900
C551	C55	0.489400	0.909200	0.677200
C561	C56	0.302000	0.744000	0.600400
C571	C57	0.282200	0.697200	0.597000
C581	C58	0.229800	0.639900	0.582300
C591	C59	0.237600	0.617340	0.586540
C601	C60	0.197500	0.558800	0.577100
C611	C61	0.639100	0.039200	0.703300
C621	C62	0.625400	0.018300	0.731500
C631	C63	0.582800	0.962800	0.734000
C641	C64	0.589300	0.968200	0.764100
C651	C65	0.557000	0.925600	0.780400
C661	C66	0.592500	0.999800	0.881700
C671	C67	0.626400	0.055000	0.884200
C681	C68	0.631300	0.084400	0.904300
C691	C69	0.667700	0.131700	0.897200
C701	C70	0.691100	0.181300	0.911000
C711	C71	0.766500	0.288400	0.834500
C721	C72	0.760680	0.260980	0.809260
C731	C73	0.760700	0.264000	0.779900
C741	C74	0.753900	0.228600	0.765900
C751	C75	0.748100	0.214100	0.733800
C761	C76	0.887200	0.771700	0.862500
C771	C77	0.833400	0.739300	0.864900
C781	C78	0.821700	0.750500	0.885000
C791	C79	0.766100	0.707500	0.877000
C801	C80	0.729300	0.695700	0.890400
C811	C81	0.572400	0.577800	0.821600
C821	C82	0.568700	0.559600	0.791100
C831	C83	0.538400	0.542400	0.762600
C841	C84	0.553510	0.534200	0.742310
C851	C85	0.536200	0.516500	0.708300
C861	C86	0.666400	0.545100	0.680500
C871	C87	0.710700	0.580700	0.709400
C881	C88	0.765000	0.615500	0.713100
C891	C89	0.788300	0.639500	0.744800
C901	C90	0.844700	0.680000	0.763100
C911	C91	0.852200	0.260600	0.275200
C921	C92	0.825390	0.207900	0.269890
C931	C93	0.818600	0.181000	0.245600
C941	C94	0.790500	0.134800	0.253500
C951	C95	0.770200	0.088200	0.236600
C961	C96	0.906900	0.213000	0.230300
C971	C97	0.878840	0.212070	0.212710
C981	C98	0.839800	0.198400	0.218600
C991	C99	0.827200	0.206200	0.195400
C1001	C100	0.788600	0.199300	0.189700
C1011	C101	0.800500	0.198700	0.454400
C1021	C102	0.815800	0.221100	0.427300
C1031	C103	0.849400	0.273020	0.425020
C1041	C104	0.848360	0.269430	0.394590
C1051	C105	0.875600	0.312700	0.378500
C1061	C106	0.359200	0.683300	0.212700
C1071	C107	0.313000	0.637500	0.184700
C1081	C108	0.257500	0.594400	0.181300
C1091	C109	0.231100	0.562100	0.150800
C1101	C110	0.173400	0.511600	0.134200
C1111	C111	0.151800	0.438900	0.034900
C1121	C112	0.206900	0.473200	0.035300
C1131	C113	0.220300	0.464050	0.014950
C1141	C114	0.276400	0.507600	0.026200
C1151	C115	0.314900	0.519900	0.015600
C1161	C116	0.174300	0.579000	0.181500
C1171	C117	0.191500	0.571000	0.202500
C1181	C118	0.229100	0.580400	0.203700
C1191	C119	0.229600	0.567500	0.229900
C1201	C120	0.260600	0.567900	0.243100
C1211	C121	0.818300	0.443700	0.602600
C1221	C122	0.837900	0.436600	0.624700
C1231	C123	0.874400	0.444100	0.624100
C1241	C124	0.876100	0.431400	0.649700
C1251	C125	0.907600	0.432300	0.661500
C1261	C126	0.849800	0.352100	0.742900
C1271	C127	0.803900	0.332000	0.748100
C1281	C128	0.765300	0.293500	0.763400
C1291	C129	0.730800	0.289400	0.760600
C1301	C130	0.682300	0.256500	0.773000
C1311	C131	0.740500	0.538100	0.665400
C1321	C132	0.782810	0.596340	0.670150
C1331	C133	0.793400	0.629400	0.691000
C1341	C134	0.837300	0.681000	0.685100
C1351	C135	0.865600	0.732300	0.700300
C1361	C136	0.102200	0.170600	0.973600
C1371	C137	0.047100	0.113300	0.952600
C1381	C138	0.012200	0.095200	0.928000
C1391	C139	0.972500	0.039600	0.917500
C1401	C140	0.923700	0.998600	0.890300
C1411	C141	0.832900	0.830000	0.886900
C1421	C142	0.864800	0.836700	0.907900
C1431	C143	0.861500	0.803800	0.907500
C1441	C144	0.904400	0.833200	0.932800
C1451	C145	0.922100	0.819200	0.945700
C1461	C146	0.498900	0.977400	0.888700
C1471	C147	0.541500	0.019500	0.918000
C1481	C148	0.599200	0.064900	0.925900
C1491	C149	0.613900	0.087100	0.956200
C1501	C150	0.672050	0.138400	0.977650
Ag11	Ag1	0.022930	0.482650	0.505320
Ag21	Ag2	0.033750	0.538350	0.566790
Ag31	Ag3	0.906440	0.414960	0.517640
Ag41	Ag4	0.067780	0.257110	0.933230
Ag51	Ag5	0.134350	0.347130	0.893280
Ag61	Ag6	0.066410	0.226090	0.860680
Ag71	Ag7	0.360040	0.462950	0.770670
Ag81	Ag8	0.307440	0.478950	0.737310
Ag91	Ag9	0.420650	0.544310	0.720200
Ag101	Ag10	0.325780	0.648690	0.620210
Ag111	Ag11	0.453280	0.760590	0.666770
Ag121	Ag12	0.398240	0.775880	0.635820
Ag131	Ag13	0.706720	0.131870	0.775130
Ag141	Ag14	0.651050	0.056450	0.824420
Ag151	Ag15	0.725790	0.183590	0.845460
Ag161	Ag16	0.767040	0.651680	0.802800
Ag171	Ag17	0.670010	0.610640	0.820270
Ag181	Ag18	0.643700	0.560340	0.746980
Ag191	Ag19	0.809590	0.198770	0.335640
Ag201	Ag20	0.754760	0.088270	0.310390
Ag211	Ag21	0.757020	0.116960	0.384240
Ag221	Ag22	0.386710	0.665730	0.149640
Ag231	Ag23	0.264330	0.557600	0.096310
Ag241	Ag24	0.370580	0.607590	0.083430
Ag251	Ag25	0.758910	0.392370	0.664040
Ag261	Ag26	0.820680	0.387960	0.702460
Ag271	Ag27	0.708310	0.323490	0.720160
Ag281	Ag28	0.065050	0.070620	0.986850
Ag291	Ag29	0.943800	0.954490	0.936090
Ag301	Ag30	0.451060	0.970850	0.945890
H11	H1	0.120800	0.535600	0.496800
H21	H2	0.159400	0.548500	0.520100
H31	H3	0.183800	0.594800	0.507400
H41	H4	0.203600	0.662400	0.623800
H51	H5	0.141700	0.613100	0.623200
H61	H6	0.169900	0.661400	0.610900
H71	H7	0.036300	0.571400	0.626300
H81	H8	0.998500	0.533000	0.646700
H91	H9	0.000700	0.566500	0.636400
H101	H10	0.810500	0.361500	0.532600
H111	H11	0.797800	0.376900	0.553900
H121	H12	0.798400	0.345200	0.563200
H131	H13	0.775500	0.249000	0.451700
H141	H14	0.793700	0.297100	0.460600
H151	H15	0.797900	0.279400	0.486100
H161	H16	0.012900	0.427700	0.458200
H171	H17	0.971000	0.382900	0.426700
H181	H18	0.977000	0.369300	0.454500
H191	H19	0.096500	0.297800	0.001300
H201	H20	0.113900	0.342000	0.021300
H211	H21	0.156600	0.352800	0.022200
H221	H22	0.206500	0.457200	0.922900
H231	H23	0.255300	0.496200	0.952500
H241	H24	0.212100	0.485000	0.950900
H251	H25	0.202100	0.429300	0.864200
H261	H26	0.208200	0.435200	0.831200
H271	H27	0.252200	0.456300	0.855700
H281	H28	0.092900	0.220900	0.803800
H291	H29	0.153400	0.266200	0.802800
H301	H30	0.113300	0.249500	0.777600
H311	H31	0.019600	0.095400	0.863600
H321	H32	0.059500	0.150900	0.856000
H331	H33	0.996100	0.101200	0.843300
H341	H34	0.019200	0.184800	0.969000
H351	H35	0.043500	0.174700	0.979000
H361	H36	0.980100	0.124900	0.965400
H371	H37	0.306700	0.396200	0.816700
H381	H38	0.285300	0.395900	0.841800
H391	H39	0.245000	0.342000	0.816000
H401	H40	0.219300	0.433500	0.753800
H411	H41	0.165000	0.375300	0.757700
H421	H42	0.204500	0.427400	0.784700
H431	H43	0.266500	0.498900	0.711400
H441	H44	0.301700	0.556100	0.711000
H451	H45	0.262400	0.509000	0.680600
H461	H46	0.462900	0.608300	0.676600
H471	H47	0.439600	0.608100	0.649300
H481	H48	0.478600	0.654800	0.680000
H491	H49	0.520100	0.601700	0.712400
H501	H50	0.569900	0.630400	0.736100
H511	H51	0.537600	0.583800	0.707000
H521	H52	0.401700	0.445600	0.793100
H531	H53	0.423300	0.435700	0.778400
H541	H54	0.461300	0.484800	0.807300
H551	H55	0.268300	0.542100	0.610600
H561	H56	0.286600	0.524600	0.612600
H571	H57	0.259800	0.517300	0.636900
H581	H58	0.494700	0.747000	0.703500
H591	H59	0.463800	0.701800	0.720200
H601	H60	0.490900	0.709700	0.696000
H611	H61	0.599200	0.914500	0.739500
H621	H62	0.546900	0.850400	0.729500
H631	H63	0.587900	0.884000	0.709500
H641	H64	0.459300	0.884300	0.659000
H651	H65	0.479500	0.911000	0.694100
H661	H66	0.520700	0.944800	0.674100
H671	H67	0.339700	0.776600	0.612100
H681	H68	0.298600	0.747800	0.580600
H691	H69	0.280700	0.738300	0.610600
H701	H70	0.162600	0.536600	0.566000
H711	H71	0.210200	0.555000	0.564400
H721	H72	0.194000	0.547400	0.595000
H731	H73	0.669800	0.078300	0.709500
H741	H74	0.608100	0.022800	0.690900
H751	H75	0.648000	0.029800	0.691800
H761	H76	0.571800	0.942400	0.802000
H771	H77	0.558600	0.906200	0.775600
H781	H78	0.519700	0.900400	0.774300
H791	H79	0.597800	0.990800	0.865600
H801	H80	0.554500	0.973100	0.877200
H811	H81	0.603200	0.999700	0.900500
H821	H82	0.675600	0.174800	0.927200
H831	H83	0.682600	0.187800	0.895600
H841	H84	0.730100	0.212700	0.919000
H851	H85	0.764900	0.278100	0.852400
H861	H86	0.737300	0.277800	0.829300
H871	H87	0.801000	0.327300	0.838300
H881	H88	0.744100	0.189800	0.730700
H891	H89	0.780000	0.246700	0.728300
H901	H90	0.716300	0.196200	0.721100
H911	H91	0.880500	0.751500	0.845400
H921	H92	0.904900	0.777600	0.880900
H931	H93	0.910300	0.806300	0.859600
H941	H94	0.692100	0.661200	0.878500
H951	H95	0.739100	0.724100	0.890600
H961	H96	0.733100	0.694100	0.911000
H971	H97	0.596800	0.587800	0.837000
H981	H98	0.536700	0.548400	0.824900
H991	H99	0.585800	0.608700	0.822500
H1001	H100	0.554400	0.515300	0.701100
H1011	H101	0.545600	0.541900	0.700700
H1021	H102	0.497300	0.480700	0.701200
H1031	H103	0.634300	0.526300	0.685000
H1041	H104	0.658100	0.518800	0.670500
H1051	H105	0.678100	0.567100	0.667400
H1061	H106	0.848200	0.688000	0.784200
H1071	H107	0.870800	0.712900	0.756700
H1081	H108	0.851300	0.665000	0.759900
H1091	H109	0.850100	0.268100	0.294400
H1101	H110	0.889800	0.290200	0.275200
H1111	H111	0.833600	0.256700	0.259100
H1121	H112	0.752700	0.062900	0.248600
H1131	H113	0.744600	0.069600	0.217400
H1141	H114	0.800700	0.102800	0.233300
H1151	H115	0.931200	0.223600	0.220000
H1161	H116	0.927600	0.238700	0.249900
H1171	H117	0.880700	0.177100	0.232600
H1181	H118	0.790100	0.208800	0.171500
H1191	H119	0.752100	0.162000	0.187700
H1201	H120	0.799300	0.222900	0.206600
H1211	H121	0.776800	0.161900	0.448100
H1221	H122	0.833000	0.221000	0.469600
H1231	H123	0.781900	0.198700	0.462600
H1241	H124	0.867900	0.299400	0.357300
H1251	H125	0.861400	0.320200	0.380200
H1261	H126	0.914300	0.345500	0.387600
H1271	H127	0.393400	0.707600	0.208200
H1281	H128	0.358400	0.703000	0.219200
H1291	H129	0.355600	0.668700	0.228500
H1301	H130	0.169400	0.500100	0.113700
H1311	H131	0.154900	0.483800	0.144300
H1321	H132	0.157700	0.517700	0.133800
H1331	H133	0.155300	0.456300	0.051800
H1341	H134	0.136400	0.434800	0.016200
H1351	H135	0.128200	0.403500	0.036500
H1361	H136	0.351400	0.554100	0.028500
H1371	H137	0.304500	0.491200	0.016300
H1381	H138	0.313600	0.522100	0.994900
H1391	H139	0.147500	0.568600	0.187500
H1401	H140	0.205300	0.616700	0.181600
H1411	H141	0.158600	0.556700	0.161300
H1421	H142	0.252700	0.558000	0.261900
H1431	H143	0.250000	0.542000	0.229000
H1441	H144	0.299100	0.603800	0.246900
H1451	H145	0.793000	0.435100	0.609500
H1461	H146	0.800300	0.419400	0.582700
H1471	H147	0.849100	0.480800	0.601500
H1481	H148	0.900400	0.422000	0.680200
H1491	H149	0.946000	0.468500	0.665300
H1501	H150	0.897200	0.407000	0.646800
H1511	H151	0.868500	0.377800	0.731100
H1521	H152	0.835600	0.321800	0.732200
H1531	H153	0.874900	0.369700	0.762200
H1541	H154	0.667900	0.262900	0.766400
H1551	H155	0.694100	0.267600	0.794900
H1561	H156	0.654500	0.218200	0.765700
H1571	H157	0.719600	0.524500	0.679700
H1581	H158	0.757400	0.533500	0.668100
H1591	H159	0.716600	0.518000	0.645000
H1601	H160	0.894100	0.760500	0.691200
H1611	H161	0.881200	0.743200	0.721600
H1621	H162	0.839700	0.726200	0.697700
H1631	H163	0.115300	0.168400	0.989100
H1641	H164	0.097700	0.185900	0.983000
H1651	H165	0.128000	0.193400	0.962000
H1661	H166	0.903200	0.963600	0.888400
H1671	H167	0.935500	0.009900	0.872400
H1681	H168	0.901000	0.995900	0.892900
H1691	H169	0.845700	0.860400	0.893700
H1701	H170	0.795000	0.796600	0.886200
H1711	H171	0.837100	0.828600	0.866900
H1721	H172	0.953300	0.848500	0.963200
H1731	H173	0.931600	0.814200	0.930600
H1741	H174	0.892600	0.786100	0.951700
H1751	H175	0.463500	0.952100	0.891400
H1761	H176	0.500000	0.957900	0.881900
H1771	H177	0.505500	0.994700	0.873600
H1781	H178	0.670700	0.144600	0.997700
H1791	H179	0.693300	0.169500	0.970200
H1801	H180	0.688700	0.133500	0.978600
N611	N61	0.519230	0.564260	0.965490
N621	N62	0.513560	0.541820	0.938580
N631	N63	0.421030	0.388070	0.924300
N641	N64	0.393990	0.357810	0.944200
N651	N65	0.390740	0.415540	0.015880
N661	N66	0.426310	0.468940	0.020850
N671	N67	0.880000	0.164030	0.545430
N681	N68	0.932500	0.205700	0.562000
N691	N69	0.983620	0.290200	0.648020
N701	N70	0.948800	0.277100	0.661300
N711	N71	0.785380	0.142830	0.612210
N721	N72	0.767700	0.111800	0.583700
N731	N73	0.143760	0.511640	0.716800
N741	N74	0.165900	0.505500	0.731200
N751	N75	0.319260	0.633990	0.791450
N761	N76	0.352180	0.685950	0.799530
N771	N77	0.294280	0.712840	0.757920
N781	N78	0.242220	0.667700	0.739520
N791	N79	0.499190	0.718700	0.859490
N801	N80	0.524440	0.747900	0.838740
N811	N81	0.657320	0.817840	0.820960
N821	N82	0.674820	0.807120	0.832540
N831	N83	0.596700	0.708940	0.890840
N841	N84	0.554600	0.687700	0.897300
N851	N85	0.792730	0.892760	0.739890
N861	N86	0.740790	0.850770	0.719960
N871	N87	0.718020	0.792610	0.632830
N881	N88	0.758850	0.810780	0.625630
N891	N89	0.914050	0.940640	0.687690
N901	N90	0.920300	0.962380	0.713680
N911	N91	0.345350	0.941230	0.655180
N921	N92	0.316880	0.890180	0.647260
N931	N93	0.274990	0.811840	0.711630
N941	N94	0.287860	0.832480	0.741740
N951	N95	0.347670	0.966810	0.763080
N961	N96	0.361900	0.993370	0.741870
N971	N97	0.389490	0.513490	0.208380
N981	N98	0.353040	0.501410	0.218250
N991	N99	0.539570	0.701120	0.313690
N1001	N100	0.547590	0.679980	0.324170
N1011	N101	0.291490	0.399110	0.099800
N1021	N102	0.341710	0.439170	0.120080
N1031	N103	0.972740	0.162240	0.341180
N1041	N104	0.947600	0.132170	0.362170
N1051	N105	0.963900	0.195130	0.443230
N1061	N106	0.991600	0.245400	0.449000
N1071	N107	0.827700	0.943800	0.272900
N1081	N108	0.808400	0.951600	0.255800
N1091	N109	0.271340	0.169130	0.849870
N1101	N110	0.254880	0.180330	0.834010
N1111	N111	0.111200	0.055760	0.764960
N1121	N112	0.079090	0.004100	0.756590
N1131	N113	0.472400	0.165270	0.847270
N1141	N114	0.516200	0.189270	0.838270
N1151	N115	0.613200	0.071700	0.541300
N1161	N116	0.589600	0.045900	0.563900
N1171	N117	0.451000	0.975300	0.568700
N1181	N118	0.435000	0.986000	0.552600
N1191	N119	0.573100	0.582100	0.557600
N1201	N120	0.594100	0.605600	0.533100
C1511	C151	0.549100	0.639500	0.986400
C1521	C152	0.537400	0.606300	0.960500
C1531	C153	0.544400	0.610630	0.931830
C1541	C154	0.528610	0.570700	0.918510
C1551	C155	0.526700	0.555600	0.887300
C1561	C156	0.416500	0.371500	0.869400
C1571	C157	0.398200	0.353700	0.897100
C1581	C158	0.357100	0.300000	0.900500
C1591	C159	0.356400	0.305300	0.930300
C1601	C160	0.319200	0.261600	0.946600
C1611	C161	0.317800	0.335300	0.034100
C1621	C162	0.358200	0.392600	0.035000
C1631	C163	0.370500	0.429200	0.051100
C1641	C164	0.413600	0.477500	0.042500
C1651	C165	0.440900	0.529300	0.051600
C1661	C166	0.827000	0.116400	0.490600
C1671	C167	0.878000	0.158000	0.516000
C1681	C168	0.931400	0.197000	0.512800
C1691	C169	0.963100	0.225200	0.542500
C1701	C170	0.024400	0.272600	0.555200
C1711	C171	0.080200	0.365700	0.651700
C1721	C172	0.035400	0.343500	0.661100
C1731	C173	0.035700	0.366700	0.682800
C1741	C174	0.980400	0.323100	0.681900
C1751	C175	0.955900	0.324800	0.701300
C1761	C176	0.759600	0.164700	0.639700
C1771	C177	0.750200	0.135400	0.611200
C1781	C178	0.711400	0.102300	0.584300
C1791	C179	0.725400	0.089200	0.568200
C1801	C180	0.696300	0.051000	0.535500
C1811	C181	0.060400	0.455500	0.679300
C1821	C182	0.094000	0.461900	0.698700
C1831	C183	0.083900	0.424100	0.700600
C1841	C184	0.129700	0.452800	0.720700
C1851	C185	0.143700	0.434700	0.732200
C1861	C186	0.325300	0.586500	0.800000
C1871	C187	0.348500	0.636300	0.804600
C1881	C188	0.401200	0.689400	0.820200
C1891	C189	0.400900	0.719300	0.817400
C1901	C190	0.445600	0.779000	0.829000
C1911	C191	0.374200	0.812200	0.777800
C1921	C192	0.315100	0.757100	0.760600
C1931	C193	0.274800	0.741200	0.743000
C1941	C194	0.229730	0.684800	0.731130
C1951	C195	0.174300	0.644400	0.711300
C1961	C196	0.415800	0.659200	0.875800
C1971	C197	0.452000	0.694600	0.856400
C1981	C198	0.446700	0.709200	0.833900
C1991	C199	0.493500	0.742700	0.823600
C2001	C200	0.509600	0.770700	0.798700
C2011	C201	0.660000	0.848900	0.777700
C2021	C202	0.675200	0.835000	0.795600
C2031	C203	0.704700	0.835200	0.791700
C2041	C204	0.705000	0.819100	0.816100
C2051	C205	0.732000	0.812200	0.822800
C2061	C206	0.643600	0.701600	0.899600
C2071	C207	0.600200	0.685200	0.903000
C2081	C208	0.557600	0.647500	0.917700
C2091	C209	0.530800	0.651060	0.913460
C2101	C210	0.481700	0.620400	0.922900
C2111	C211	0.835900	0.935800	0.796700
C2121	C212	0.786800	0.893900	0.768500
C2131	C213	0.728800	0.848800	0.766000
C2141	C214	0.704100	0.825200	0.735900
C2151	C215	0.645200	0.776600	0.719600
C2161	C216	0.618100	0.710800	0.618300
C2171	C217	0.670800	0.742200	0.615800
C2181	C218	0.680100	0.727000	0.595700
C2191	C219	0.734500	0.770500	0.602800
C2201	C220	0.770300	0.780100	0.589000
C2211	C221	0.953900	0.932000	0.665500
C2221	C222	0.951720	0.951420	0.690740
C2231	C223	0.984100	0.980800	0.720100
C2241	C224	0.962700	0.988000	0.734100
C2251	C225	0.980300	0.014300	0.766200
C2261	C226	0.409200	0.024700	0.637500
C2271	C227	0.374400	0.968500	0.635100
C2281	C228	0.365500	0.936700	0.615000
C2291	C229	0.330500	0.889100	0.623000
C2301	C230	0.305300	0.838900	0.609600
C2311	C231	0.256200	0.750800	0.678400
C2321	C232	0.268500	0.777600	0.708900
C2331	C233	0.279800	0.775800	0.737400
C2341	C234	0.291890	0.811200	0.757690
C2351	C235	0.308200	0.827900	0.791700
C2361	C236	0.364600	0.985900	0.819500
C2371	C237	0.371300	0.001300	0.790600
C2381	C238	0.402400	0.051900	0.786900
C2391	C239	0.394700	0.043500	0.755200
C2401	C240	0.416900	0.081600	0.736900
C2411	C241	0.485400	0.577000	0.224800
C2421	C242	0.438010	0.555500	0.230110
C2431	C243	0.435400	0.573000	0.254400
C2441	C244	0.381300	0.537000	0.246500
C2451	C245	0.351600	0.533600	0.263400
C2461	C246	0.482700	0.676600	0.269700
C2471	C247	0.499360	0.666130	0.287290
C2481	C248	0.479800	0.621200	0.281400
C2491	C249	0.510800	0.631800	0.304600
C2501	C250	0.509600	0.598900	0.310300
C2511	C251	0.244300	0.346100	0.045600
C2521	C252	0.293800	0.388500	0.072700
C2531	C253	0.348000	0.424380	0.074980
C2541	C254	0.374840	0.453770	0.105410
C2551	C255	0.434200	0.497100	0.121500
C2561	C256	0.970600	0.146500	0.287300
C2571	C257	0.952800	0.128300	0.315300
C2581	C258	0.913100	0.076200	0.318700
C2591	C259	0.911300	0.080300	0.349200
C2601	C260	0.877400	0.039200	0.365800
C2611	C261	0.904000	0.116900	0.465100
C2621	C262	0.937900	0.171600	0.464700
C2631	C263	0.949100	0.205350	0.485050
C2641	C264	0.981400	0.250200	0.473800
C2651	C265	0.004300	0.299300	0.484400
C2661	C266	0.897500	0.992800	0.318500
C2671	C267	0.868500	0.989000	0.297500
C2681	C268	0.876700	0.025400	0.296300
C2691	C269	0.837600	0.999700	0.270100
C2701	C270	0.824800	0.017500	0.256900
C2711	C271	0.341100	0.215700	0.897400
C2721	C272	0.311900	0.213200	0.875300
C2731	C273	0.320000	0.250300	0.875900
C2741	C274	0.281700	0.226400	0.850300
C2751	C275	0.270800	0.246100	0.838500
C2761	C276	0.109200	0.106900	0.757100
C2771	C277	0.083900	0.055800	0.751900
C2781	C278	0.030100	0.001900	0.736600
C2791	C279	0.028800	0.970200	0.739400
C2801	C280	0.983500	0.909300	0.727000
C2811	C281	0.372700	0.075100	0.834600
C2821	C282	0.426190	0.112660	0.829850
C2831	C283	0.438400	0.102400	0.809000
C2841	C284	0.495900	0.152200	0.814900
C2851	C285	0.532000	0.165300	0.799700
C2861	C286	0.697000	0.128600	0.526400
C2871	C287	0.660700	0.094500	0.547400
C2881	C288	0.667200	0.084200	0.572000
C2891	C289	0.622100	0.055000	0.582500
C2901	C290	0.608300	0.033400	0.609700
C2911	C291	0.443100	0.946000	0.613100
C2921	C292	0.428800	0.956900	0.592100
C2931	C293	0.396300	0.954000	0.592500
C2941	C294	0.400400	0.971600	0.567200
C2951	C295	0.373500	0.976400	0.554300
C2961	C296	0.588700	0.610200	0.611300
C2971	C297	0.601500	0.623500	0.582000
C2981	C298	0.639000	0.673300	0.574100
C2991	C299	0.630900	0.657700	0.543800
C3001	C300	0.660750	0.694400	0.522350
Ag311	Ag31	0.477330	0.517610	0.994680
Ag321	Ag32	0.471570	0.466960	0.933210
Ag331	Ag33	0.397320	0.388800	0.982360
Ag341	Ag34	0.823880	0.134550	0.566770
Ag351	Ag35	0.953850	0.241070	0.606720
Ag361	Ag36	0.865410	0.205730	0.639320
Ag371	Ag37	0.192280	0.589370	0.729330
Ag381	Ag38	0.241640	0.570130	0.762690
Ag391	Ag39	0.324110	0.700450	0.779800
Ag401	Ag40	0.528480	0.705570	0.879790
Ag411	Ag41	0.593820	0.786510	0.833230
Ag421	Ag42	0.640060	0.762420	0.864180
Ag431	Ag43	0.856740	0.931590	0.724870
Ag441	Ag44	0.732030	0.826630	0.675580
Ag451	Ag45	0.838130	0.880330	0.654540
Ag461	Ag46	0.348880	0.964240	0.697200
Ag471	Ag47	0.290370	0.849740	0.679730
Ag481	Ag48	0.313360	0.896720	0.753020
Ag491	Ag49	0.363130	0.473950	0.164360
Ag501	Ag50	0.277880	0.444370	0.189610
Ag511	Ag51	0.232720	0.372780	0.115760
Ag521	Ag52	0.016090	0.237070	0.350360
Ag531	Ag53	0.961290	0.168020	0.403690
Ag541	Ag54	0.024160	0.287150	0.416570
Ag551	Ag55	0.228330	0.094870	0.835960
Ag561	Ag56	0.185500	0.118220	0.797540
Ag571	Ag57	0.103330	0.988150	0.779840
Ag581	Ag58	0.583770	0.078200	0.513150
Ag591	Ag59	0.518400	0.007710	0.563910
Ag601	Ag60	0.524960	0.505170	0.554110
H1811	H181	0.538800	0.624000	0.003200
H1821	H182	0.528400	0.639300	0.979900
H1831	H183	0.587400	0.676400	0.992600
H1841	H184	0.538600	0.579800	0.876200
H1851	H185	0.489900	0.518500	0.876800
H1861	H186	0.550500	0.559000	0.889100
H1871	H187	0.445100	0.410000	0.873700
H1881	H188	0.386300	0.351800	0.853300
H1891	H189	0.430100	0.364300	0.863600
H1901	H190	0.328900	0.277900	0.967400
H1911	H191	0.323000	0.243900	0.946100
H1921	H192	0.282000	0.235200	0.936800
H1931	H193	0.297300	0.323800	0.048300
H1941	H194	0.336500	0.333100	0.039400
H1951	H195	0.293300	0.311800	0.013900
H1961	H196	0.469500	0.554700	0.041800
H1971	H197	0.456200	0.544300	0.073300
H1981	H198	0.414800	0.522500	0.045500
H1991	H199	0.796500	0.095200	0.498700
H2001	H200	0.820700	0.092600	0.478700
H2011	H201	0.830600	0.134400	0.477800
H2021	H202	0.034300	0.283600	0.577100
H2031	H203	0.043700	0.302800	0.547500
H2041	H204	0.034100	0.261200	0.549100
H2051	H205	0.065100	0.337900	0.635800
H2061	H206	0.104000	0.377000	0.668800
H2071	H207	0.100600	0.396500	0.644300
H2081	H208	0.917100	0.289100	0.696200
H2091	H209	0.963400	0.350600	0.697200
H2101	H210	0.971900	0.335700	0.722400
H2111	H211	0.731800	0.156000	0.636400
H2121	H212	0.794900	0.203500	0.644000
H2131	H213	0.757900	0.152800	0.656700
H2141	H214	0.715800	0.050200	0.531000
H2151	H215	0.695700	0.064500	0.521000
H2161	H216	0.659500	0.014700	0.534600
H2171	H217	0.079500	0.490000	0.683300
H2181	H218	0.054100	0.443500	0.658200
H2191	H219	0.026000	0.429000	0.684000
H2201	H220	0.179700	0.465500	0.746200
H2211	H221	0.117600	0.407300	0.742300
H2221	H222	0.142700	0.419800	0.715300
H2231	H223	0.287500	0.555100	0.788600
H2241	H224	0.345100	0.590700	0.789000
H2251	H225	0.328400	0.581800	0.819400
H2261	H226	0.431700	0.786300	0.823400
H2271	H227	0.458800	0.790300	0.850700
H2281	H228	0.474800	0.798600	0.820000
H2291	H229	0.389300	0.807700	0.787600
H2301	H230	0.394300	0.833800	0.763900
H2311	H231	0.376800	0.830600	0.793000
H2321	H232	0.152500	0.608600	0.706900
H2331	H233	0.157300	0.644900	0.721600
H2341	H234	0.177500	0.654000	0.692700
H2351	H235	0.431500	0.657700	0.889400
H2361	H236	0.412000	0.674000	0.887400
H2371	H237	0.380400	0.622900	0.863100
H2381	H238	0.543500	0.791200	0.796500
H2391	H239	0.481600	0.743600	0.779800
H2401	H240	0.513700	0.794900	0.804000
H2411	H241	0.675000	0.859700	0.760500
H2421	H242	0.620900	0.817400	0.770500
H2431	H243	0.674500	0.878400	0.790500
H2441	H244	0.725300	0.800300	0.841000
H2451	H245	0.716900	0.785400	0.805900
H2461	H246	0.770700	0.846600	0.825900
H2471	H247	0.664500	0.727600	0.887900
H2481	H248	0.667200	0.718000	0.919400
H2491	H249	0.627700	0.670100	0.889400
H2501	H250	0.470600	0.596600	0.934000
H2511	H251	0.490600	0.645800	0.935600
H2521	H252	0.452400	0.599000	0.905000
H2531	H253	0.868800	0.960300	0.790500
H2541	H254	0.831900	0.917200	0.809100
H2551	H255	0.838000	0.956200	0.808200
H2561	H256	0.640400	0.769800	0.698000
H2571	H257	0.630600	0.783000	0.724400
H2581	H258	0.626100	0.745400	0.725700
H2591	H259	0.625200	0.732200	0.634400
H2601	H260	0.595900	0.677300	0.622800
H2611	H261	0.599200	0.702700	0.599500
H2621	H262	0.747600	0.748400	0.572800
H2631	H263	0.792200	0.787000	0.604400
H2641	H264	0.793700	0.811100	0.581000
H2651	H265	0.925700	0.912500	0.647600
H2661	H266	0.948500	0.908000	0.670700
H2671	H267	0.989000	0.962700	0.661700
H2681	H268	0.959100	0.013400	0.769300
H2691	H269	0.018400	0.051700	0.771700
H2701	H270	0.975100	0.995200	0.778900
H2711	H271	0.406100	0.035100	0.654600
H2721	H272	0.396700	0.024000	0.619100
H2731	H273	0.446700	0.050700	0.640400
H2741	H274	0.282700	0.813600	0.621500
H2751	H275	0.333500	0.848500	0.609400
H2761	H276	0.283100	0.822100	0.589000
H2771	H277	0.250800	0.759800	0.663000
H2781	H278	0.223500	0.711800	0.675100
H2791	H279	0.286200	0.763300	0.677500
H2801	H280	0.314200	0.853300	0.798900
H2811	H281	0.341200	0.844900	0.799300
H2821	H282	0.279500	0.796100	0.798800
H2831	H283	0.341300	0.949300	0.815000
H2841	H284	0.348300	0.987600	0.829500
H2851	H285	0.399700	0.010700	0.832600
H2861	H286	0.403800	0.064000	0.715800
H2871	H287	0.456200	0.114100	0.743300
H2881	H288	0.405100	0.091400	0.740100
H2891	H289	0.473700	0.555700	0.205600
H2901	H290	0.515000	0.614600	0.224800
H2911	H291	0.497600	0.574500	0.240900
H2921	H292	0.314300	0.504100	0.251400
H2931	H293	0.352200	0.527200	0.282600
H2941	H294	0.369500	0.567400	0.266700
H2951	H295	0.503600	0.711200	0.280000
H2961	H296	0.488800	0.677700	0.250100
H2971	H297	0.444500	0.648100	0.267400
H2981	H298	0.537300	0.618600	0.328500
H2991	H299	0.474300	0.564400	0.312300
H3001	H300	0.516300	0.592700	0.293400
H3011	H301	0.213800	0.328700	0.051900
H3021	H302	0.251400	0.363400	0.030400
H3031	H303	0.236100	0.319300	0.037400
H3041	H304	0.442100	0.510600	0.142700
H3051	H305	0.440000	0.481200	0.119800
H3061	H306	0.457900	0.526700	0.112400
H3071	H307	0.999400	0.185200	0.291800
H3081	H308	0.983800	0.139200	0.280800
H3091	H309	0.940200	0.127100	0.271500
H3101	H310	0.886400	0.055700	0.386300
H3111	H311	0.839500	0.010600	0.355700
H3121	H312	0.883900	0.023900	0.366200
H3131	H313	0.904500	0.103500	0.448200
H3141	H314	0.918600	0.120200	0.483800
H3151	H315	0.867000	0.091700	0.463500
H3161	H316	0.025600	0.322900	0.471500
H3171	H317	0.974900	0.288200	0.483700
H3181	H318	0.027200	0.318700	0.505100
H3191	H319	0.881100	0.960000	0.312500
H3201	H320	0.935100	0.023700	0.318400
H3211	H321	0.895400	0.997300	0.338700
H3221	H322	0.796100	0.990800	0.238100
H3231	H323	0.813000	0.021000	0.271000
H3241	H324	0.856900	0.052200	0.253100
H3251	H325	0.325600	0.183500	0.890500
H3261	H326	0.336700	0.217600	0.917300
H3271	H327	0.379300	0.247600	0.898500
H3281	H328	0.241800	0.220200	0.819800
H3291	H329	0.303200	0.280700	0.834700
H3301	H330	0.260200	0.250400	0.853200
H3311	H331	0.146700	0.137400	0.768900
H3321	H332	0.089600	0.103400	0.767800
H3331	H333	0.107500	0.112700	0.737800
H3341	H334	0.996500	0.901500	0.733600
H3351	H335	0.972700	0.899200	0.705100
H3361	H336	0.952500	0.888800	0.734300
H3371	H337	0.344800	0.039900	0.820300
H3381	H338	0.365400	0.089300	0.831900
H3391	H339	0.373000	0.071600	0.855000
H3401	H340	0.569300	0.202900	0.808800
H3411	H341	0.521600	0.159600	0.778400
H3421	H342	0.528500	0.142000	0.802300
H3431	H343	0.679300	0.126200	0.510900
H3441	H344	0.702900	0.114700	0.517000
H3451	H345	0.731400	0.166000	0.538000
H3461	H346	0.575200	0.014800	0.611600
H3471	H347	0.637500	0.063100	0.627600
H3481	H348	0.603000	0.008100	0.607100
H3491	H349	0.466700	0.952000	0.606300
H3501	H350	0.410400	0.908800	0.613800
H3511	H351	0.461700	0.970200	0.633100
H3521	H352	0.385300	0.990100	0.536800
H3531	H353	0.383600	0.001000	0.569400
H3541	H354	0.334400	0.940900	0.548300
H3551	H355	0.560700	0.572100	0.608600
H3561	H356	0.576000	0.618100	0.618100
H3571	H357	0.621100	0.631900	0.626400
H3581	H358	0.646900	0.673000	0.502300
H3591	H359	0.699300	0.723100	0.529800
H3601	H360	0.654900	0.710100	0.521400
N1211	N121	0.053740	0.019230	0.454970
N1221	N122	0.074980	0.013560	0.471740
N1231	N123	0.996730	0.921030	0.532960
N1241	N124	0.949790	0.893990	0.536180
N1251	N125	0.874860	0.890740	0.475200
N1261	N126	0.905460	0.926310	0.457370
N1271	N127	0.834570	0.380000	0.215970
N1281	N128	0.870500	0.432500	0.226800
N1291	N129	0.835600	0.483620	0.193420
N1301	N130	0.787500	0.448800	0.171700
N1311	N131	0.673170	0.285380	0.142550
N1321	N132	0.684000	0.267700	0.155900
N1331	N133	0.926960	0.643760	0.132120
N1341	N134	0.934700	0.665900	0.160400
N1351	N135	0.027810	0.819260	0.185270
N1361	N136	0.052650	0.852180	0.166230
N1371	N137	0.036360	0.794280	0.081440
N1381	N138	0.002700	0.742220	0.074520
N1391	N139	0.139700	0.999190	0.280490
N1401	N140	0.185700	0.024440	0.276540
N1411	N141	0.336360	0.157320	0.339480
N1421	N142	0.342280	0.174820	0.367700
N1431	N143	0.205860	0.096700	0.387760
N1441	N144	0.157300	0.054600	0.366900
N1451	N145	0.552840	0.292730	0.399970
N1461	N146	0.520830	0.240790	0.390020
N1471	N147	0.585190	0.218020	0.425410
N1481	N148	0.633220	0.258850	0.448070
N1491	N149	0.726360	0.414050	0.473410
N1501	N150	0.706620	0.420300	0.457920
N1511	N151	0.190170	0.845350	0.904120
N1521	N152	0.169620	0.816880	0.926700
N1531	N153	0.063360	0.774990	0.963150
N1541	N154	0.046120	0.787860	0.955380
N1551	N155	0.084590	0.847670	0.880860
N1561	N156	0.120030	0.861900	0.868530
N1571	N157	0.681110	0.889490	0.376000
N1581	N158	0.634790	0.853040	0.351630
N1591	N159	0.725880	0.039570	0.338450
N1601	N160	0.723420	0.047590	0.367610
N1611	N161	0.691690	0.791490	0.392380
N1621	N162	0.721630	0.841710	0.402540
N1631	N163	0.131560	0.472740	0.310500
N1641	N164	0.085430	0.447600	0.315430
N1651	N165	0.020670	0.463900	0.268770
N1661	N166	0.042600	0.491600	0.246200
N1671	N167	0.054800	0.327700	0.383900
N1681	N168	0.052600	0.308400	0.356800
N1691	N169	0.921470	0.771340	0.602210
N1701	N170	0.920870	0.754880	0.574550
N1711	N171	0.846240	0.611200	0.555440
N1721	N172	0.822500	0.579090	0.574990
N1731	N173	0.125130	0.972400	0.807130
N1741	N174	0.177930	0.016200	0.826930
N1751	N175	0.571900	0.113200	0.041500
N1761	N176	0.525700	0.089600	0.043700
N1771	N177	0.382300	0.951000	0.975700
N1781	N178	0.382400	0.935000	0.949000
N1791	N179	0.515500	0.073100	0.491000
N1801	N180	0.561000	0.094100	0.488500
C3011	C301	0.062700	0.049100	0.409600
C3021	C302	0.076900	0.037400	0.431100
C3031	C303	0.112570	0.044400	0.433770
C3041	C304	0.110100	0.028610	0.457910
C3051	C305	0.139400	0.026700	0.471100
C3061	C306	0.047100	0.916500	0.545000
C3071	C307	0.001100	0.898200	0.544500
C3081	C308	0.956600	0.857100	0.557100
C3091	C309	0.926100	0.856400	0.551100
C3101	C310	0.872600	0.819200	0.557600
C3111	C311	0.783700	0.817800	0.482500
C3121	C312	0.823200	0.858200	0.465600
C3131	C313	0.819400	0.870500	0.441300
C3141	C314	0.871100	0.913600	0.436100
C3151	C315	0.889300	0.940900	0.411600
C3161	C316	0.836400	0.327000	0.210600
C3171	C317	0.862000	0.378000	0.220000
C3181	C318	0.918600	0.431400	0.234400
C3191	C319	0.920600	0.463100	0.237900
C3201	C320	0.969200	0.524400	0.251800
C3211	C321	0.928500	0.580200	0.214500
C3221	C322	0.874300	0.535400	0.191900
C3231	C323	0.852900	0.535700	0.169000
C3241	C324	0.798500	0.480400	0.157300
C3251	C325	0.754600	0.455900	0.131100
C3261	C326	0.619900	0.259600	0.094900
C3271	C327	0.639000	0.250200	0.114800
C3281	C328	0.627100	0.211400	0.109100
C3291	C329	0.657200	0.225400	0.136200
C3301	C330	0.660800	0.196300	0.145300
C3311	C331	0.881100	0.560400	0.104900
C3321	C332	0.895300	0.594000	0.132100
C3331	C333	0.883300	0.583900	0.159800
C3341	C334	0.909000	0.629700	0.176900
C3351	C335	0.911500	0.643700	0.209000
C3361	C336	0.025300	0.825300	0.238800
C3371	C337	0.043900	0.848500	0.212200
C3381	C338	0.081000	0.901200	0.211800
C3391	C339	0.083500	0.900900	0.181600
C3401	C340	0.116600	0.945600	0.166600
C3411	C341	0.096400	0.874200	0.062000
C3421	C342	0.054500	0.815100	0.058000
C3431	C343	0.031800	0.774800	0.033600
C3441	C344	0.998600	0.729730	0.044930
C3451	C345	0.963000	0.674300	0.029900
C3461	C346	0.040000	0.915800	0.256600
C3471	C347	0.095600	0.952000	0.257400
C3481	C348	0.112800	0.946700	0.237500
C3491	C349	0.169900	0.993500	0.250800
C3501	C350	0.210900	0.009600	0.238900
C3511	C351	0.382300	0.160000	0.311100
C3521	C352	0.379600	0.175200	0.340200
C3531	C353	0.413000	0.204700	0.369500
C3541	C354	0.388900	0.205000	0.385900
C3551	C355	0.409200	0.232000	0.419800
C3561	C356	0.244000	0.143600	0.442000
C3571	C357	0.197200	0.100200	0.415000
C3581	C358	0.139900	0.057600	0.410100
C3591	C359	0.117340	0.030800	0.379740
C3601	C360	0.058800	0.981700	0.361300
C3611	C361	0.539200	0.335900	0.400100
C3621	C362	0.518300	0.286800	0.392900
C3631	C363	0.462800	0.228800	0.380000
C3641	C364	0.468200	0.204100	0.378900
C3651	C365	0.425600	0.145200	0.368600
C3661	C366	0.499800	0.118100	0.407300
C3671	C367	0.555000	0.170800	0.428600
C3681	C368	0.584400	0.180100	0.453100
C3691	C369	0.631700	0.234500	0.464000
C3701	C370	0.681300	0.270300	0.490200
C3711	C371	0.788400	0.453900	0.521900
C3721	C372	0.760980	0.451720	0.500300
C3731	C373	0.764000	0.484100	0.503300
C3741	C374	0.728600	0.462700	0.474700
C3751	C375	0.714100	0.480300	0.466000
C3761	C376	0.271700	0.909200	0.884500
C3771	C377	0.239300	0.874400	0.905900
C3781	C378	0.250500	0.865500	0.928800
C3791	C379	0.207500	0.830500	0.941400
C3801	C380	0.195700	0.805300	0.966400
C3811	C381	0.077800	0.756200	0.005400
C3821	C382	0.059600	0.768500	0.990900
C3831	C383	0.042400	0.779800	0.004000
C3841	C384	0.034200	0.791890	0.980690
C3851	C385	0.016500	0.808200	0.980300
C3861	C386	0.045100	0.864600	0.878700
C3871	C387	0.080700	0.871300	0.870000
C3881	C388	0.115500	0.902400	0.850500
C3891	C389	0.139500	0.894700	0.851200
C3901	C390	0.180000	0.916900	0.835300
C3911	C391	0.760600	0.985400	0.408400
C3921	C392	0.707900	0.938010	0.382510
C3931	C393	0.681000	0.935400	0.362400
C3941	C394	0.634800	0.881300	0.344300
C3951	C395	0.588200	0.851600	0.318000
C3961	C396	0.713000	0.982700	0.306100
C3971	C397	0.712070	0.999360	0.333230
C3981	C398	0.698400	0.979800	0.358600
C3991	C399	0.706200	0.010800	0.379000
C4001	C400	0.699300	0.009600	0.410700
C4011	C401	0.698700	0.744300	0.398200
C4021	C402	0.721100	0.793800	0.405300
C4031	C403	0.773020	0.848000	0.423620
C4041	C404	0.769430	0.874840	0.421070
C4051	C405	0.812700	0.934200	0.437100
C4061	C406	0.183300	0.470600	0.324100
C4071	C407	0.137500	0.452800	0.324500
C4081	C408	0.094400	0.413100	0.336900
C4091	C409	0.062100	0.411300	0.331000
C4101	C410	0.011600	0.377400	0.338200
C4111	C411	0.938900	0.404000	0.287100
C4121	C412	0.973200	0.437900	0.266300
C4131	C413	0.964050	0.449100	0.243750
C4141	C414	0.007600	0.481400	0.231200
C4151	C415	0.019900	0.504300	0.205000
C4161	C416	0.079000	0.397500	0.404700
C4171	C417	0.071000	0.368500	0.379500
C4181	C418	0.080400	0.376700	0.351300
C4191	C419	0.067500	0.337600	0.337900
C4201	C420	0.067900	0.324800	0.307300
C4211	C421	0.943700	0.841100	0.625400
C4221	C422	0.936600	0.811900	0.598700
C4231	C423	0.944100	0.820000	0.569700
C4241	C424	0.931400	0.781700	0.555300
C4251	C425	0.932300	0.770800	0.524700
C4261	C426	0.852100	0.609200	0.502300
C4271	C427	0.832000	0.583900	0.528100
C4281	C428	0.793500	0.530100	0.528200
C4291	C429	0.789400	0.528800	0.558600
C4301	C430	0.756500	0.483500	0.574200
C4311	C431	0.038100	0.872700	0.797600
C4321	C432	0.096340	0.926190	0.813530
C4331	C433	0.129400	0.938400	0.836000
C4341	C434	0.181000	0.995900	0.843700
C4351	C435	0.232300	0.032000	0.866700
C4361	C436	0.670600	0.197000	0.068400
C4371	C437	0.613300	0.160700	0.066200
C4381	C438	0.595200	0.167200	0.083000
C4391	C439	0.539600	0.122100	0.067100
C4401	C440	0.498600	0.108300	0.074900
C4411	C441	0.330000	0.943100	0.997100
C4421	C442	0.336700	0.928800	0.971900
C4431	C443	0.303800	0.896300	0.942300
C4441	C444	0.333200	0.900400	0.928800
C4451	C445	0.319200	0.873500	0.897100
C4461	C446	0.477400	0.088700	0.478500
C4471	C447	0.519500	0.101500	0.478000
C4481	C448	0.564900	0.139000	0.465700
C4491	C449	0.587100	0.130900	0.473200
C4501	C450	0.638400	0.160750	0.466350
Ag611	Ag61	0.982650	0.977330	0.459720
Ag621	Ag62	0.038360	0.971570	0.504600
Ag631	Ag63	0.914960	0.897320	0.508520
Ag641	Ag64	0.757110	0.323880	0.189330
Ag651	Ag65	0.847130	0.453850	0.212780
Ag661	Ag66	0.726090	0.365410	0.159680
Ag671	Ag67	0.962950	0.692280	0.102910
Ag681	Ag68	0.978950	0.741640	0.171510
Ag691	Ag69	0.044310	0.824110	0.123660
Ag701	Ag70	0.148690	0.028480	0.322910
Ag711	Ag71	0.260590	0.093820	0.307310
Ag721	Ag72	0.275880	0.140060	0.377640
Ag731	Ag73	0.631870	0.356740	0.425150
Ag741	Ag74	0.556450	0.232030	0.405400
Ag751	Ag75	0.683590	0.338130	0.457800
Ag761	Ag76	0.151680	0.848880	0.884640
Ag771	Ag77	0.110640	0.790370	0.940630
Ag781	Ag78	0.060340	0.813360	0.916640
Ag791	Ag79	0.698770	0.863130	0.389180
Ag801	Ag80	0.588270	0.777880	0.333510
Ag811	Ag81	0.616960	0.732720	0.359940
Ag821	Ag82	0.165730	0.516090	0.279020
Ag831	Ag83	0.057600	0.461290	0.293270
Ag841	Ag84	0.107590	0.524160	0.237010
Ag851	Ag85	0.892370	0.728330	0.633460
Ag861	Ag86	0.887960	0.685500	0.567280
Ag871	Ag87	0.823490	0.603330	0.615180
Ag881	Ag88	0.570620	0.083770	0.005570
Ag891	Ag89	0.454490	0.018400	0.010690
Ag901	Ag90	0.470850	0.024960	0.519790
H3611	H361	0.035600	0.038800	0.414800
H3621	H362	0.048500	0.028400	0.389100
H3631	H363	0.094800	0.087400	0.411000
H3641	H364	0.162400	0.038600	0.458800
H3651	H365	0.113100	0.989900	0.471400
H3661	H366	0.161400	0.050500	0.491500
H3671	H367	0.071400	0.945100	0.535100
H3681	H368	0.033000	0.886300	0.534500
H3691	H369	0.066500	0.930100	0.565800
H3701	H370	0.861500	0.828900	0.551000
H3711	H371	0.876900	0.823000	0.579100
H3721	H372	0.845200	0.782000	0.546800
H3731	H373	0.749000	0.797300	0.473500
H3741	H374	0.797100	0.836500	0.503400
H3751	H375	0.779400	0.793300	0.481500
H3761	H376	0.927700	0.969500	0.414800
H3771	H377	0.882900	0.956200	0.411900
H3781	H378	0.869300	0.914800	0.392300
H3791	H379	0.797800	0.296500	0.201300
H3801	H380	0.842000	0.320700	0.228100
H3811	H381	0.852800	0.330600	0.196200
H3821	H382	0.957200	0.534300	0.250700
H3831	H383	0.996200	0.543700	0.240900
H3841	H384	0.985000	0.534100	0.272900
H3851	H385	0.929300	0.565100	0.227200
H3861	H386	0.935200	0.604000	0.227000
H3871	H387	0.956300	0.600600	0.204100
H3881	H388	0.720900	0.417100	0.128000
H3891	H389	0.766200	0.463400	0.112800
H3901	H390	0.749500	0.471900	0.136200
H3911	H391	0.595400	0.231800	0.075800
H3921	H392	0.650900	0.294900	0.091400
H3931	H393	0.601200	0.257900	0.105100
H3941	H394	0.684800	0.215800	0.165600
H3951	H395	0.674700	0.195700	0.131200
H3961	H396	0.624900	0.159500	0.144800
H3971	H397	0.896200	0.579500	0.089500
H3981	H398	0.895900	0.554100	0.110600
H3991	H399	0.842000	0.526000	0.097000
H4001	H400	0.933500	0.679700	0.214200
H4011	H401	0.875300	0.617600	0.210300
H4021	H402	0.927400	0.642700	0.222900
H4031	H403	0.998900	0.787500	0.232400
H4041	H404	0.056100	0.845100	0.254400
H4051	H405	0.009000	0.828400	0.246600
H4061	H406	0.108300	0.931700	0.145400
H4071	H407	0.108100	0.958800	0.168500
H4081	H408	0.154800	0.974800	0.176200
H4091	H409	0.101700	0.889300	0.081600
H4101	H410	0.130400	0.894300	0.060500
H4111	H411	0.083800	0.876800	0.046200
H4121	H412	0.945600	0.652500	0.043900
H4131	H413	0.935700	0.657300	0.012400
H4141	H414	0.984800	0.677500	0.023500
H4151	H415	0.042100	0.931500	0.273800
H4161	H416	0.024600	0.912000	0.238000
H4171	H417	0.017300	0.880400	0.257500
H4181	H418	0.247000	0.043500	0.252300
H4191	H419	0.201800	0.981600	0.238000
H4201	H420	0.209700	0.013700	0.218800
H4211	H421	0.414500	0.175000	0.315300
H4221	H422	0.350400	0.120900	0.303500
H4231	H423	0.384000	0.174500	0.296100
H4241	H424	0.384300	0.225300	0.425000
H4251	H425	0.411000	0.216900	0.431500
H4261	H426	0.444800	0.270700	0.424100
H4271	H427	0.276600	0.164500	0.436900
H4281	H428	0.247800	0.167200	0.449200
H4291	H429	0.238300	0.127700	0.457600
H4301	H430	0.036600	0.970600	0.374000
H4311	H431	0.055000	0.990600	0.344800
H4321	H432	0.047400	0.952400	0.353400
H4331	H433	0.578300	0.368800	0.408500
H4341	H434	0.522800	0.331900	0.414700
H4351	H435	0.529800	0.338000	0.381800
H4361	H436	0.442400	0.140400	0.370600
H4371	H437	0.406200	0.130600	0.347600
H4381	H438	0.400400	0.126100	0.380700
H4391	H439	0.490800	0.125200	0.393000
H4401	H440	0.473100	0.095900	0.418600
H4411	H441	0.499700	0.099200	0.396500
H4421	H442	0.674800	0.247600	0.499200
H4431	H443	0.687800	0.292200	0.505200
H4441	H444	0.712700	0.293700	0.482600
H4451	H445	0.778100	0.425700	0.513200
H4461	H446	0.777800	0.448500	0.540500
H4471	H447	0.827300	0.489000	0.526300
H4481	H448	0.689800	0.459100	0.445700
H4491	H449	0.746700	0.518400	0.466700
H4501	H450	0.696200	0.475100	0.479900
H4511	H451	0.251500	0.906100	0.871000
H4521	H452	0.277600	0.896700	0.872700
H4531	H453	0.306300	0.946700	0.896000
H4541	H454	0.161200	0.782700	0.969100
H4551	H455	0.224100	0.833500	0.985000
H4561	H456	0.194100	0.783100	0.961000
H4571	H457	0.087800	0.750800	0.991000
H4581	H458	0.048400	0.723500	0.011700
H4591	H459	0.108700	0.786200	0.022900
H4601	H460	0.015300	0.814200	0.960900
H4611	H461	0.041900	0.841200	0.996300
H4621	H462	0.980700	0.779500	0.983400
H4631	H463	0.026300	0.841300	0.892000
H4641	H464	0.018800	0.848300	0.860700
H4651	H465	0.067100	0.899700	0.889000
H4661	H466	0.188000	0.903800	0.839800
H4671	H467	0.212900	0.956200	0.842100
H4681	H468	0.165000	0.905100	0.813700
H4691	H469	0.768100	0.973700	0.418000
H4701	H470	0.790200	0.015000	0.400400
H4711	H471	0.756700	0.997600	0.423100
H4721	H472	0.562900	0.814300	0.310200
H4731	H473	0.569600	0.852200	0.325000
H4741	H474	0.602800	0.869500	0.302100
H4751	H475	0.723600	0.003600	0.292400
H4761	H476	0.738700	0.988800	0.311100
H4771	H477	0.677100	0.944500	0.296400
H4781	H478	0.708800	0.037300	0.418700
H4791	H479	0.662000	0.974300	0.409900
H4801	H480	0.722900	0.016300	0.423600
H4811	H481	0.661900	0.713800	0.385100
H4821	H482	0.721000	0.751400	0.388000
H4831	H483	0.698700	0.736100	0.416800
H4841	H484	0.799400	0.942100	0.431500
H4851	H485	0.820200	0.940000	0.458800
H4861	H486	0.845500	0.957900	0.431200
H4871	H487	0.207600	0.499400	0.314200
H4881	H488	0.203000	0.483800	0.344600
H4891	H489	0.168700	0.440200	0.313100
H4901	H490	0.000100	0.386400	0.330700
H4911	H491	0.983800	0.339500	0.328900
H4921	H492	0.017700	0.383900	0.360000
H4931	H493	0.956300	0.404500	0.301000
H4941	H494	0.934800	0.418600	0.298400
H4951	H495	0.903500	0.367000	0.275300
H4961	H496	0.054100	0.525600	0.202700
H4971	H497	0.991200	0.474900	0.186700
H4981	H498	0.022100	0.527200	0.208500
H4991	H499	0.068600	0.381100	0.421100
H5001	H500	0.116700	0.435100	0.411400
H5011	H501	0.056700	0.395400	0.398100
H5021	H502	0.058000	0.296100	0.305300
H5031	H503	0.042000	0.313000	0.292000
H5041	H504	0.103800	0.356900	0.304700
H5051	H505	0.935100	0.825600	0.642100
H5061	H506	0.919400	0.836700	0.619100
H5071	H507	0.980800	0.879300	0.631700
H5081	H508	0.922000	0.741800	0.521600
H5091	H509	0.968500	0.803200	0.522500
H5101	H510	0.907000	0.760200	0.509800
H5111	H511	0.877800	0.646700	0.509300
H5121	H512	0.821800	0.589600	0.486200
H5131	H513	0.869700	0.607500	0.494800
H5141	H514	0.762900	0.496500	0.595000
H5151	H515	0.767600	0.472700	0.573500
H5161	H516	0.718200	0.452500	0.563700
H5171	H517	0.024500	0.844800	0.804900
H5181	H518	0.033500	0.865400	0.776100
H5191	H519	0.018000	0.873000	0.801400
H5201	H520	0.260500	0.069300	0.866400
H5211	H521	0.243200	0.021600	0.862000
H5221	H522	0.226200	0.028500	0.886500
H5231	H523	0.668400	0.179300	0.053100
H5241	H524	0.685900	0.202900	0.088200
H5251	H525	0.693400	0.231400	0.065400
H5261	H526	0.463600	0.075200	0.060400
H5271	H527	0.509900	0.137500	0.074400
H5281	H528	0.495900	0.103000	0.094900
H5291	H529	0.360400	0.966700	0.014700
H5301	H530	0.296600	0.910400	0.001600
H5311	H531	0.328600	0.961700	0.991500
H5321	H532	0.348500	0.885300	0.895200
H5331	H533	0.314200	0.883600	0.882600
H5341	H534	0.286100	0.834400	0.893500
H5351	H535	0.452100	0.060700	0.488600
H5361	H536	0.457900	0.076000	0.457900
H5371	H537	0.494700	0.121100	0.489200
H5381	H538	0.644600	0.146900	0.473900
H5391	H539	0.669500	0.199300	0.476200
H5401	H540	0.633500	0.154900	0.444800
N1811	N181	0.064260	0.598770	0.045030
N1821	N182	0.041820	0.603240	0.028260
N1831	N183	0.888070	0.463770	0.967040
N1841	N184	0.857810	0.413610	0.963820
N1851	N185	0.915540	0.399660	0.024800
N1861	N186	0.968940	0.448090	0.042630
N1871	N187	0.664030	0.618600	0.284030
N1881	N188	0.705700	0.643700	0.273200
N1891	N189	0.790200	0.642180	0.306580
N1901	N190	0.777100	0.615800	0.328300
N1911	N191	0.642830	0.530620	0.357450
N1921	N192	0.611800	0.528100	0.344100
N1931	N193	0.011640	0.794840	0.367880
N1941	N194	0.005500	0.774300	0.339600
N1951	N195	0.133990	0.842540	0.314730
N1961	N196	0.185950	0.886420	0.333770
N1971	N197	0.212840	0.954920	0.418560
N1981	N198	0.167700	0.928180	0.425480
N1991	N199	0.218700	0.859210	0.219510
N2001	N200	0.247900	0.909160	0.223460
N2011	N201	0.317840	0.996880	0.160520
N2021	N202	0.307120	0.974580	0.132300
N2031	N203	0.208940	0.818100	0.112240
N2041	N204	0.187700	0.790400	0.133100
N2051	N205	0.392760	0.152870	0.100030
N2061	N206	0.350770	0.130810	0.109980
N2071	N207	0.292610	0.159780	0.074590
N2081	N208	0.310780	0.185150	0.051930
N2091	N209	0.440640	0.252950	0.026590
N2101	N210	0.462380	0.248700	0.042080
N2111	N211	0.441230	0.286050	0.595880
N2121	N212	0.390180	0.242920	0.573300
N2131	N213	0.311840	0.100210	0.536850
N2141	N214	0.332480	0.090740	0.544620
N2151	N215	0.466810	0.203730	0.619140
N2161	N216	0.493370	0.251500	0.631470
N2171	N217	0.013490	0.305110	0.124000
N2181	N218	0.001410	0.283160	0.148370
N2191	N219	0.201120	0.387430	0.161550
N2201	N220	0.179980	0.355810	0.132390
N2211	N221	0.899110	0.299310	0.107620
N2221	N222	0.939170	0.319090	0.097460
N2231	N223	0.662240	0.821060	0.189500
N2241	N224	0.632170	0.770000	0.184570
N2251	N225	0.695130	0.751900	0.231230
N2261	N226	0.745400	0.796400	0.253800
N2271	N227	0.443800	0.670900	0.116100
N2281	N228	0.451600	0.695800	0.143200
N2291	N229	0.669130	0.319260	0.897790
N2301	N230	0.680330	0.346320	0.925450
N2311	N231	0.555760	0.290800	0.944560
N2321	N232	0.504100	0.247510	0.925010
N2331	N233	0.665270	0.318000	0.692870
N2341	N234	0.689270	0.351000	0.673070
N2351	N235	0.571700	0.530400	0.458500
N2361	N236	0.545900	0.482000	0.456300
N2371	N237	0.475300	0.406600	0.524300
N2381	N238	0.486000	0.433400	0.551000
N2391	N239	0.082100	0.024500	0.009000
N2401	N240	0.105600	0.072500	0.011500
C4511	C451	0.139500	0.653100	0.090400
C4521	C452	0.106300	0.645800	0.068900
C4531	C453	0.110630	0.678800	0.066230
C4541	C454	0.070700	0.652190	0.042090
C4551	C455	0.055600	0.668300	0.028900
C4561	C456	0.871500	0.502100	0.955000
C4571	C457	0.853700	0.456600	0.955500
C4581	C458	0.800000	0.399500	0.942900
C4591	C459	0.805300	0.375000	0.948900
C4601	C460	0.761600	0.315000	0.942400
C4611	C461	0.835300	0.301200	0.017500
C4621	C462	0.892600	0.357600	0.034400
C4631	C463	0.929200	0.378100	0.058700
C4641	C464	0.977500	0.435000	0.063900
C4651	C465	0.029300	0.477700	0.088400
C4661	C466	0.616400	0.625800	0.289400
C4671	C467	0.658000	0.642000	0.280000
C4681	C468	0.697000	0.684200	0.265600
C4691	C469	0.725200	0.682700	0.262100
C4701	C470	0.772600	0.717400	0.248200
C4711	C471	0.865700	0.714000	0.285500
C4721	C472	0.843500	0.682400	0.308100
C4731	C473	0.866700	0.683900	0.331000
C4741	C474	0.823100	0.641200	0.342700
C4751	C475	0.824800	0.623500	0.368900
C4761	C476	0.664700	0.525000	0.405100
C4771	C477	0.635400	0.524200	0.385200
C4781	C478	0.602300	0.518000	0.390900
C4791	C479	0.589200	0.521000	0.363800
C4801	C480	0.551000	0.515500	0.354700
C4811	C481	0.955500	0.776200	0.395100
C4821	C482	0.961900	0.763200	0.367900
C4831	C483	0.924100	0.723500	0.340200
C4841	C484	0.952800	0.732100	0.323100
C4851	C485	0.934700	0.702500	0.291000
C4861	C486	0.086500	0.786500	0.261200
C4871	C487	0.136300	0.831700	0.287800
C4881	C488	0.189400	0.869200	0.288200
C4891	C489	0.219300	0.901900	0.318400
C4901	C490	0.279000	0.950000	0.333400
C4911	C491	0.312200	0.034400	0.438000
C4921	C492	0.257100	0.996500	0.442000
C4931	C493	0.241200	0.998200	0.466400
C4941	C494	0.184800	0.953670	0.455070
C4951	C495	0.144400	0.933100	0.470100
C4961	C496	0.159200	0.783400	0.243400
C4971	C497	0.194600	0.838200	0.242600
C4981	C498	0.209200	0.875300	0.262500
C4991	C499	0.242700	0.919100	0.249200
C5001	C500	0.270700	0.972000	0.261100
C5011	C501	0.348900	0.071200	0.188900
C5021	C502	0.335000	0.039400	0.159800
C5031	C503	0.335200	0.043500	0.130500
C5041	C504	0.319100	0.003000	0.114100
C5051	C505	0.312200	0.989400	0.080200
C5061	C506	0.201600	0.802000	0.058000
C5071	C507	0.185200	0.782200	0.085000
C5081	C508	0.147500	0.729800	0.089900
C5091	C509	0.151060	0.737600	0.120260
C5101	C510	0.120400	0.697500	0.138700
C5111	C511	0.435800	0.139100	0.099900
C5121	C512	0.393900	0.125400	0.107100
C5131	C513	0.348800	0.082800	0.120000
C5141	C514	0.325200	0.089300	0.121100
C5151	C515	0.276600	0.057000	0.131400
C5161	C516	0.210800	0.092500	0.092700
C5171	C517	0.242200	0.126400	0.071400
C5181	C518	0.227000	0.131300	0.046900
C5191	C519	0.270500	0.167700	0.036000
C5201	C520	0.280100	0.191100	0.009800
C5211	C521	0.432000	0.266500	0.978100
C5221	C522	0.451420	0.260680	0.999700
C5231	C523	0.480800	0.260700	0.996700
C5241	C524	0.488000	0.253900	0.025300
C5251	C525	0.514300	0.248100	0.034000
C5261	C526	0.524700	0.387200	0.615500
C5271	C527	0.468500	0.333400	0.594100
C5281	C528	0.436700	0.321700	0.571200
C5291	C529	0.389100	0.266100	0.558600
C5301	C530	0.338900	0.229300	0.533600
C5311	C531	0.250800	0.072400	0.494600
C5321	C532	0.277600	0.068700	0.509100
C5331	C533	0.275800	0.038400	0.496000
C5341	C534	0.311200	0.053510	0.519310
C5351	C535	0.327900	0.036200	0.519700
C5361	C536	0.485900	0.166400	0.621300
C5371	C537	0.501300	0.210700	0.630000
C5381	C538	0.551900	0.265000	0.649500
C5391	C539	0.543500	0.288300	0.648800
C5401	C540	0.581600	0.344700	0.664700
C5411	C541	0.077000	0.352200	0.091600
C5421	C542	0.055500	0.325390	0.117490
C5431	C543	0.073000	0.318600	0.137600
C5441	C544	0.037000	0.290500	0.155700
C5451	C545	0.033600	0.270200	0.182000
C5461	C546	0.176600	0.406900	0.193900
C5471	C547	0.166130	0.378840	0.166770
C5481	C548	0.121200	0.339800	0.141400
C5491	C549	0.131800	0.327200	0.121000
C5501	C550	0.098900	0.288600	0.089300
C5511	C551	0.846100	0.300500	0.101800
C5521	C552	0.888500	0.315800	0.094700
C5531	C553	0.924380	0.349400	0.076380
C5541	C554	0.953770	0.348360	0.078930
C5551	C555	0.997100	0.375600	0.062900
C5561	C556	0.646500	0.859200	0.175900
C5571	C557	0.628300	0.813000	0.175500
C5581	C558	0.576200	0.757500	0.163100
C5591	C559	0.580300	0.731100	0.169000
C5601	C560	0.539200	0.673400	0.161800
C5611	C561	0.616900	0.651800	0.212900
C5621	C562	0.671600	0.706900	0.233700
C5631	C563	0.705350	0.720300	0.256250
C5641	C564	0.750200	0.776400	0.268800
C5651	C565	0.799300	0.814900	0.295000
C5661	C566	0.492800	0.674300	0.095300
C5671	C567	0.489000	0.691500	0.120500
C5681	C568	0.525400	0.729100	0.148700
C5691	C569	0.499700	0.729600	0.162100
C5701	C570	0.517500	0.760600	0.192700
C5711	C571	0.715700	0.318300	0.874600
C5721	C572	0.713200	0.337900	0.901300
C5731	C573	0.750300	0.374400	0.930300
C5741	C574	0.726400	0.376100	0.944700
C5751	C575	0.746100	0.407600	0.975300
C5761	C576	0.606900	0.349800	0.997700
C5771	C577	0.555800	0.303900	0.971900
C5781	C578	0.501900	0.265300	0.971800
C5791	C579	0.470200	0.230800	0.941400
C5801	C580	0.409300	0.182300	0.925800
C5811	C581	0.575100	0.240500	0.702400
C5821	C582	0.612660	0.282810	0.686470
C5831	C583	0.602400	0.293400	0.664000
C5841	C584	0.652200	0.337300	0.656300
C5851	C585	0.665300	0.365600	0.633300
C5861	C586	0.628600	0.602200	0.431600
C5871	C587	0.594500	0.547100	0.433800
C5881	C588	0.584200	0.512200	0.417000
C5891	C589	0.555000	0.472500	0.432900
C5901	C590	0.533400	0.423700	0.425100
C5911	C591	0.446000	0.332900	0.502900
C5921	C592	0.456900	0.364800	0.528100
C5931	C593	0.454000	0.361500	0.557700
C5941	C594	0.471600	0.404400	0.571200
C5951	C595	0.476400	0.422100	0.602900
C5961	C596	0.110200	0.998900	0.021500
C5971	C597	0.123500	0.041500	0.022000
C5981	C598	0.173300	0.099200	0.034300
C5991	C599	0.157700	0.113900	0.026800
C6001	C600	0.194400	0.172050	0.033650
Ag911	Ag91	0.017610	0.522930	0.040280
Ag921	Ag92	0.966960	0.533750	0.995400
Ag931	Ag93	0.888800	0.406440	0.991480
Ag941	Ag94	0.634550	0.567780	0.310670
Ag951	Ag95	0.741070	0.634350	0.287220
Ag961	Ag96	0.705730	0.566410	0.340320
Ag971	Ag97	0.089370	0.860040	0.397090
Ag981	Ag98	0.070130	0.807440	0.328490
Ag991	Ag99	0.200450	0.920650	0.376340
Ag1001	Ag100	0.205570	0.825780	0.177090
Ag1011	Ag101	0.286510	0.953280	0.192690
Ag1021	Ag102	0.262420	0.898240	0.122360
Ag1031	Ag103	0.431590	0.206720	0.074850
Ag1041	Ag104	0.326630	0.151050	0.094600
Ag1051	Ag105	0.380330	0.225790	0.042200
Ag1061	Ag106	0.464240	0.267040	0.615360
Ag1071	Ag107	0.349740	0.170010	0.559370
Ag1081	Ag108	0.396720	0.143700	0.583360
Ag1091	Ag109	0.973950	0.309590	0.110820
Ag1101	Ag110	0.944370	0.254760	0.166490
Ag1111	Ag111	0.872780	0.257020	0.140060
Ag1121	Ag112	0.737070	0.886710	0.220980
Ag1131	Ag113	0.668020	0.764330	0.206730
Ag1141	Ag114	0.787150	0.870580	0.262990
Ag1151	Ag115	0.594870	0.258910	0.866540
Ag1161	Ag116	0.618220	0.320680	0.932720
Ag1171	Ag117	0.488150	0.208310	0.884820
Ag1181	Ag118	0.578200	0.565050	0.494430
Ag1191	Ag119	0.507710	0.443800	0.489310
Ag1201	Ag120	0.005170	0.951060	0.980210
H5411	H541	0.124000	0.620800	0.085200
H5421	H542	0.139300	0.659400	0.110900
H5431	H543	0.176400	0.683800	0.089000
H5441	H544	0.079800	0.703600	0.041200
H5451	H545	0.018500	0.641700	0.028600
H5461	H546	0.059000	0.669900	0.008500
H5471	H547	0.910000	0.536300	0.964900
H5481	H548	0.851800	0.498500	0.965500
H5491	H549	0.864300	0.500700	0.934200
H5501	H550	0.777900	0.310500	0.949000
H5511	H551	0.743900	0.297800	0.920900
H5521	H552	0.735200	0.298400	0.953200
H5531	H553	0.823800	0.275500	0.026500
H5541	H554	0.833100	0.293700	0.996600
H5551	H555	0.811800	0.297900	0.018500
H5561	H556	0.054700	0.512900	0.085200
H5571	H557	0.044300	0.471000	0.088100
H5581	H558	0.022500	0.477000	0.107700
H5591	H559	0.595200	0.596500	0.298700
H5601	H560	0.592600	0.613900	0.271900
H5611	H561	0.634400	0.656600	0.303800
H5621	H562	0.783600	0.706500	0.249300
H5631	H563	0.802800	0.755300	0.259100
H5641	H564	0.761200	0.712100	0.227100
H5651	H565	0.837900	0.702100	0.272800
H5661	H566	0.877000	0.708200	0.273000
H5671	H567	0.896500	0.752200	0.295900
H5681	H568	0.789100	0.592900	0.372000
H5691	H569	0.850600	0.653400	0.387200
H5701	H570	0.835700	0.613300	0.363800
H5711	H571	0.656000	0.519600	0.424200
H5721	H572	0.703500	0.559500	0.408600
H5731	H573	0.652800	0.496100	0.394900
H5741	H574	0.550200	0.519200	0.334400
H5751	H575	0.564500	0.543500	0.368800
H5761	H576	0.514700	0.480100	0.355200
H5771	H577	0.990000	0.806700	0.410500
H5781	H578	0.943500	0.785300	0.389400
H5791	H579	0.929000	0.745000	0.403000
H5801	H580	0.965500	0.719300	0.285800
H5811	H581	0.907300	0.665000	0.289700
H5821	H582	0.919800	0.704500	0.277100
H5831	H583	0.055100	0.766500	0.267600
H5841	H584	0.090700	0.801700	0.245600
H5851	H585	0.081800	0.762400	0.253400
H5861	H586	0.286300	0.962900	0.354600
H5871	H587	0.290300	0.939600	0.331500
H5881	H588	0.298600	0.978600	0.323800
H5891	H589	0.307700	0.020100	0.418400
H5901	H590	0.333800	0.069900	0.439500
H5911	H591	0.330600	0.037600	0.453800
H5921	H592	0.108600	0.901700	0.456100
H5931	H593	0.144900	0.923300	0.487600
H5941	H594	0.154000	0.961300	0.476500
H5951	H595	0.157700	0.768300	0.226200
H5961	H596	0.174000	0.786600	0.262000
H5971	H597	0.122900	0.759800	0.242500
H5981	H598	0.291200	0.994700	0.247700
H5991	H599	0.243600	0.963800	0.262000
H6001	H600	0.294900	0.990900	0.281200
H6011	H601	0.359700	0.099200	0.184700
H6021	H602	0.317400	0.046900	0.196500
H6031	H603	0.378400	0.087900	0.203900
H6041	H604	0.300300	0.959300	0.075000
H6051	H605	0.285400	0.979500	0.068500
H6061	H606	0.346600	0.020700	0.075900
H6071	H607	0.227600	0.839700	0.063100
H6081	H608	0.218000	0.798600	0.050800
H6091	H609	0.170100	0.780700	0.042400
H6101	H610	0.096600	0.662600	0.126000
H6111	H611	0.145800	0.710200	0.155200
H6121	H612	0.099000	0.694000	0.146600
H6131	H613	0.460300	0.169800	0.091500
H6141	H614	0.417200	0.108100	0.085300
H6151	H615	0.456200	0.148000	0.118200
H6161	H616	0.269800	0.071800	0.129400
H6171	H617	0.283000	0.058600	0.152400
H6181	H618	0.245400	0.019700	0.119300
H6191	H619	0.232200	0.097800	0.107000
H6201	H620	0.177300	0.054500	0.081400
H6211	H621	0.202700	0.103200	0.103500
H6221	H622	0.248400	0.175600	0.000800
H6231	H623	0.287000	0.182600	0.994800
H6241	H624	0.311100	0.230100	0.017400
H6251	H625	0.412500	0.264900	0.986800
H6261	H626	0.408000	0.237300	0.959500
H6271	H627	0.462700	0.301000	0.973700
H6281	H628	0.513400	0.244100	0.054300
H6291	H629	0.551700	0.280000	0.033300
H6301	H630	0.495200	0.216300	0.020100
H6311	H631	0.535100	0.380500	0.629000
H6321	H632	0.524000	0.404900	0.627300
H6331	H633	0.550700	0.410300	0.604000
H6341	H634	0.313600	0.192100	0.530900
H6351	H635	0.348500	0.239100	0.515000
H6361	H636	0.322100	0.233100	0.539000
H6371	H637	0.259800	0.096800	0.509000
H6381	H638	0.211800	0.036700	0.488300
H6391	H639	0.263300	0.085800	0.477100
H6401	H640	0.353300	0.054400	0.539100
H6411	H641	0.344900	0.045600	0.503700
H6421	H642	0.296100	0.997300	0.516600
H6431	H643	0.449300	0.134300	0.608000
H6441	H644	0.487600	0.158100	0.639300
H6451	H645	0.510700	0.178100	0.611000
H6461	H646	0.564000	0.348200	0.660200
H6471	H647	0.614100	0.370800	0.657900
H6481	H648	0.591400	0.351300	0.686300
H6491	H649	0.055700	0.350100	0.082000
H6501	H650	0.114600	0.389800	0.099600
H6511	H651	0.074500	0.333600	0.076900
H6521	H652	0.004100	0.252700	0.189800
H6531	H653	0.027200	0.244600	0.175000
H6541	H654	0.067400	0.300700	0.197900
H6551	H655	0.211200	0.431200	0.207600
H6561	H656	0.177700	0.427600	0.188900
H6571	H657	0.148100	0.380700	0.203600
H6581	H658	0.118600	0.290100	0.081300
H6591	H659	0.064400	0.252100	0.090100
H6601	H660	0.092700	0.299300	0.076400
H6611	H661	0.828700	0.276800	0.114900
H6621	H662	0.863400	0.333000	0.112000
H6631	H663	0.819300	0.281900	0.083200
H6641	H664	0.010600	0.367900	0.068500
H6651	H665	0.981200	0.361400	0.041200
H6661	H666	0.026700	0.414300	0.068800
H6671	H667	0.685200	0.893400	0.185800
H6681	H668	0.639200	0.858400	0.155400
H6691	H669	0.627100	0.855600	0.186900
H6701	H670	0.555700	0.669400	0.169300
H6711	H671	0.510600	0.654900	0.171100
H6721	H672	0.523900	0.657700	0.140000
H6731	H673	0.603500	0.655300	0.199000
H6741	H674	0.620200	0.636400	0.201600
H6751	H675	0.591700	0.628200	0.224700
H6761	H676	0.822900	0.851400	0.297300
H6771	H677	0.788200	0.804500	0.313300
H6781	H678	0.818700	0.813600	0.291500
H6791	H679	0.460000	0.647500	0.078900
H6801	H680	0.523700	0.705300	0.088600
H6811	H681	0.497300	0.658600	0.101900
H6821	H682	0.490800	0.752700	0.194700
H6831	H683	0.521000	0.750000	0.208000
H6841	H684	0.552200	0.799100	0.195300
H6851	H685	0.683500	0.293000	0.857900
H6861	H686	0.717600	0.300300	0.880900
H6871	H687	0.747600	0.349100	0.868300
H6881	H688	0.720200	0.400400	0.978400
H6891	H689	0.780700	0.446000	0.977500
H6901	H690	0.750400	0.397200	0.990200
H6911	H691	0.637400	0.368500	0.990700
H6921	H692	0.603400	0.335600	0.013800
H6931	H693	0.612700	0.374900	0.005200
H6941	H694	0.401500	0.167900	0.905000
H6951	H695	0.399200	0.194100	0.926500
H6961	H696	0.388800	0.154500	0.936300
H6971	H697	0.539900	0.219600	0.695100
H6981	H698	0.589300	0.257400	0.723900
H6991	H699	0.571600	0.216600	0.698600
H7001	H700	0.702900	0.394100	0.633600
H7011	H701	0.659600	0.381200	0.638000
H7021	H702	0.642000	0.339700	0.613500
H7031	H703	0.626200	0.615300	0.446900
H7041	H704	0.614700	0.597700	0.411800
H7051	H705	0.666000	0.628000	0.434600
H7061	H706	0.514800	0.403200	0.439600
H7071	H707	0.563100	0.435500	0.425600
H7081	H708	0.508100	0.401000	0.405100
H7091	H709	0.452000	0.345700	0.485300
H7101	H710	0.408800	0.295000	0.498400
H7111	H711	0.470200	0.337100	0.508500
H7121	H712	0.490100	0.453300	0.604800
H7131	H713	0.501000	0.431600	0.617400
H7141	H714	0.440900	0.392600	0.606500
H7151	H715	0.072100	0.963500	0.011400
H7161	H716	0.118100	0.000000	0.042100
H7171	H717	0.131900	0.005500	0.010800
H7181	H718	0.173000	0.170700	0.026100
H7191	H719	0.223100	0.193300	0.023800
H7201	H720	0.210100	0.188700	0.055200
N2411	N241	0.901230	0.446260	0.465490
N2421	N242	0.896760	0.425020	0.438580
N2431	N243	0.036230	0.503270	0.424300
N2441	N244	0.086390	0.550210	0.444200
N2451	N245	0.100340	0.625140	0.515880
N2461	N246	0.051910	0.594540	0.520850
N2471	N247	0.881400	0.665430	0.045430
N2481	N248	0.856300	0.629500	0.062000
N2491	N249	0.857820	0.664400	0.148020
N2501	N250	0.884200	0.712500	0.161300
N2511	N251	0.969380	0.826830	0.112210
N2521	N252	0.971900	0.816000	0.083700
N2531	N253	0.705160	0.573040	0.216800
N2541	N254	0.725700	0.565300	0.231200
N2551	N255	0.657460	0.472190	0.291450
N2561	N256	0.613580	0.447350	0.299530
N2571	N257	0.545080	0.463640	0.257920
N2581	N258	0.571820	0.497300	0.239520
N2591	N259	0.640790	0.360300	0.359490
N2601	N260	0.590840	0.314300	0.338740
N2611	N261	0.503120	0.163640	0.320960
N2621	N262	0.525420	0.157720	0.332540
N2631	N263	0.681900	0.294140	0.390840
N2641	N264	0.709600	0.342700	0.397300
N2651	N265	0.347130	0.947160	0.239890
N2661	N266	0.369190	0.979170	0.219960
N2671	N267	0.340220	0.914810	0.132830
N2681	N268	0.314850	0.866780	0.125630
N2691	N269	0.247050	0.773640	0.187690
N2701	N270	0.251300	0.793380	0.213680
N2711	N271	0.213950	0.309830	0.155180
N2721	N272	0.257080	0.330380	0.147260
N2731	N273	0.399790	0.436640	0.211630
N2741	N274	0.409260	0.453880	0.241740
N2751	N275	0.296270	0.415410	0.263080
N2761	N276	0.248500	0.379970	0.241870
N2771	N277	0.194890	0.818890	0.708380
N2781	N278	0.216840	0.865210	0.718250
N2791	N279	0.112570	0.774120	0.813690
N2801	N280	0.144190	0.776580	0.824170
N2811	N281	0.200690	0.808310	0.599800
N2821	N282	0.180910	0.778370	0.620080
N2831	N283	0.678940	0.368440	0.841180
N2841	N284	0.730000	0.414570	0.862170
N2851	N285	0.748100	0.479330	0.943230
N2861	N286	0.703600	0.457400	0.949000
N2871	N287	0.829100	0.445200	0.772900
N2881	N288	0.804200	0.447400	0.755800
N2891	N289	0.180740	0.578530	0.349870
N2901	N290	0.153680	0.579130	0.334010
N2911	N291	0.209200	0.653760	0.264960
N2921	N292	0.252490	0.677500	0.256590
N2931	N293	0.182000	0.374870	0.347270
N2941	N294	0.149000	0.322070	0.338270
N2951	N295	0.969600	0.928100	0.041300
N2961	N296	0.018000	0.974300	0.063900
N2971	N297	0.093400	0.117700	0.068700
N2981	N298	0.066600	0.117600	0.052600
N2991	N299	0.475500	0.984500	0.057600
N3001	N300	0.427500	0.939000	0.033100
C6011	C601	0.846900	0.437300	0.486400
C6021	C602	0.854200	0.423100	0.460500
C6031	C603	0.821200	0.387430	0.431830
C6041	C604	0.847810	0.389900	0.418510
C6051	C605	0.831700	0.360600	0.387300
C6061	C606	0.997900	0.452900	0.369400
C6071	C607	0.043400	0.498900	0.397100
C6081	C608	0.100500	0.543400	0.400500
C6091	C609	0.125000	0.573900	0.430300
C6101	C610	0.185000	0.627400	0.446600
C6111	C611	0.198800	0.716300	0.534100
C6121	C612	0.142400	0.676800	0.535000
C6131	C613	0.121900	0.680600	0.551100
C6141	C614	0.065000	0.628900	0.542500
C6151	C615	0.022300	0.610700	0.551600
C6161	C616	0.874200	0.663600	0.990600
C6171	C617	0.858000	0.638000	0.016000
C6181	C618	0.815800	0.581400	0.012800
C6191	C619	0.817300	0.579400	0.042500
C6201	C620	0.782600	0.530800	0.055200
C6211	C621	0.786000	0.571500	0.151700
C6221	C622	0.817600	0.625700	0.161100
C6231	C623	0.816100	0.647100	0.182800
C6241	C624	0.858800	0.701500	0.181900
C6251	C625	0.876500	0.745400	0.201300
C6261	C626	0.975000	0.880100	0.139700
C6271	C627	0.975800	0.861000	0.111200
C6281	C628	0.982000	0.872900	0.084300
C6291	C629	0.979000	0.842800	0.068200
C6301	C630	0.984500	0.839200	0.035500
C6311	C631	0.723800	0.618900	0.179300
C6321	C632	0.736800	0.604700	0.198700
C6331	C633	0.776500	0.616700	0.200600
C6341	C634	0.767900	0.591000	0.220700
C6351	C635	0.797500	0.588500	0.232200
C6361	C636	0.713500	0.474700	0.300000
C6371	C637	0.668300	0.456100	0.304600
C6381	C638	0.630800	0.419000	0.320200
C6391	C639	0.598100	0.416500	0.317400
C6401	C640	0.550000	0.383400	0.329000
C6411	C641	0.465600	0.403600	0.277800
C6421	C642	0.503500	0.445500	0.260600
C6431	C643	0.501800	0.468200	0.243000
C6441	C644	0.546330	0.501400	0.231130
C6451	C645	0.566900	0.537000	0.211300
C6461	C646	0.716600	0.460000	0.375800
C6471	C647	0.661800	0.404400	0.356400
C6481	C648	0.624700	0.387200	0.333900
C6491	C649	0.580900	0.330100	0.323600
C6501	C650	0.528000	0.289100	0.298700
C6511	C651	0.428800	0.117700	0.277700
C6521	C652	0.460600	0.120400	0.295600
C6531	C653	0.456500	0.087000	0.291700
C6541	C654	0.497000	0.111100	0.316100
C6551	C655	0.510600	0.090800	0.322800
C6561	C656	0.698000	0.256000	0.399600
C6571	C657	0.717800	0.302800	0.403000
C6581	C658	0.770200	0.360100	0.417700
C6591	C659	0.762400	0.382660	0.413460
C6601	C660	0.802500	0.441200	0.422900
C6611	C661	0.360900	0.960800	0.296700
C6621	C662	0.374600	0.981700	0.268500
C6631	C663	0.417200	0.037200	0.266000
C6641	C664	0.410700	0.031800	0.235900
C6651	C665	0.443000	0.074400	0.219600
C6661	C666	0.407500	0.000200	0.118300
C6671	C667	0.373600	0.945000	0.115800
C6681	C668	0.368700	0.915600	0.095700
C6691	C669	0.332300	0.868300	0.102800
C6701	C670	0.308900	0.818700	0.089000
C6711	C671	0.233500	0.711600	0.165500
C6721	C672	0.239320	0.739020	0.190740
C6731	C673	0.239300	0.736000	0.220100
C6741	C674	0.246100	0.771400	0.234100
C6751	C675	0.251900	0.785900	0.266200
C6761	C676	0.112800	0.228300	0.137500
C6771	C677	0.166600	0.260700	0.135100
C6781	C678	0.178300	0.249500	0.115000
C6791	C679	0.233900	0.292500	0.123000
C6801	C680	0.270700	0.304300	0.109600
C6811	C681	0.427600	0.422200	0.178400
C6821	C682	0.431300	0.440400	0.208900
C6831	C683	0.461600	0.457600	0.237400
C6841	C684	0.446490	0.465800	0.257690
C6851	C685	0.463800	0.483500	0.291700
C6861	C686	0.333600	0.454900	0.319500
C6871	C687	0.289300	0.419300	0.290600
C6881	C688	0.235000	0.384500	0.286900
C6891	C689	0.211700	0.360500	0.255200
C6901	C690	0.155300	0.320000	0.236900
C6911	C691	0.147800	0.739400	0.724800
C6921	C692	0.174610	0.792100	0.730110
C6931	C693	0.181400	0.819000	0.754400
C6941	C694	0.209500	0.865200	0.746500
C6951	C695	0.229800	0.911800	0.763400
C6961	C696	0.093100	0.787000	0.769700
C6971	C697	0.121160	0.787930	0.787290
C6981	C698	0.160200	0.801600	0.781400
C6991	C699	0.172800	0.793800	0.804600
C7001	C700	0.211400	0.800700	0.810300
C7011	C701	0.199500	0.801300	0.545600
C7021	C702	0.184200	0.778900	0.572700
C7031	C703	0.150600	0.726980	0.574980
C7041	C704	0.151640	0.730570	0.605410
C7051	C705	0.124400	0.687300	0.621500
C7061	C706	0.640800	0.316700	0.787300
C7071	C707	0.687000	0.362500	0.815300
C7081	C708	0.742500	0.405600	0.818700
C7091	C709	0.768900	0.437900	0.849200
C7101	C710	0.826600	0.488400	0.865800
C7111	C711	0.848200	0.561100	0.965100
C7121	C712	0.793100	0.526800	0.964700
C7131	C713	0.779700	0.535950	0.985050
C7141	C714	0.723600	0.492400	0.973800
C7151	C715	0.685100	0.480100	0.984400
C7161	C716	0.825700	0.421000	0.818500
C7171	C717	0.808500	0.429000	0.797500
C7181	C718	0.770900	0.419600	0.796300
C7191	C719	0.770400	0.432500	0.770100
C7201	C720	0.739400	0.432100	0.756900
C7211	C721	0.181700	0.556300	0.397400
C7221	C722	0.162100	0.563400	0.375300
C7231	C723	0.125600	0.555900	0.375900
C7241	C724	0.123900	0.568600	0.350300
C7251	C725	0.092400	0.567700	0.338500
C7261	C726	0.150200	0.647900	0.257100
C7271	C727	0.196100	0.668000	0.251900
C7281	C728	0.234700	0.706500	0.236600
C7291	C729	0.269200	0.710600	0.239400
C7301	C730	0.317700	0.743500	0.227000
C7311	C731	0.259500	0.461900	0.334600
C7321	C732	0.217190	0.403660	0.329850
C7331	C733	0.206600	0.370600	0.309000
C7341	C734	0.162700	0.319000	0.314900
C7351	C735	0.134400	0.267700	0.299700
C7361	C736	0.897800	0.829400	0.026400
C7371	C737	0.952900	0.886700	0.047400
C7381	C738	0.987800	0.904800	0.072000
C7391	C739	0.027500	0.960400	0.082500
C7401	C740	0.076300	0.001400	0.109700
C7411	C741	0.167100	0.170000	0.113100
C7421	C742	0.135200	0.163300	0.092100
C7431	C743	0.138500	0.196200	0.092500
C7441	C744	0.095600	0.166800	0.067200
C7451	C745	0.077900	0.180800	0.054300
C7461	C746	0.501100	0.022600	0.111300
C7471	C747	0.458500	0.980500	0.082000
C7481	C748	0.400800	0.935100	0.074100
C7491	C749	0.386100	0.912900	0.043800
C7501	C750	0.327950	0.861600	0.022350
Ag1211	Ag121	0.977070	0.517350	0.494680
Ag1221	Ag122	0.966250	0.461650	0.433210
Ag1231	Ag123	0.093560	0.585040	0.482360
Ag1241	Ag124	0.932220	0.742890	0.066770
Ag1251	Ag125	0.865650	0.652870	0.106720
Ag1261	Ag126	0.933590	0.773910	0.139320
Ag1271	Ag127	0.639960	0.537050	0.229330
Ag1281	Ag128	0.692560	0.521050	0.262690
Ag1291	Ag129	0.579350	0.455690	0.279800
Ag1301	Ag130	0.674220	0.351310	0.379790
Ag1311	Ag131	0.546720	0.239410	0.333230
Ag1321	Ag132	0.601760	0.224120	0.364180
Ag1331	Ag133	0.293280	0.868130	0.224870
Ag1341	Ag134	0.348950	0.943550	0.175580
Ag1351	Ag135	0.274210	0.816410	0.154540
Ag1361	Ag136	0.232960	0.348320	0.197200
Ag1371	Ag137	0.329990	0.389360	0.179730
Ag1381	Ag138	0.356300	0.439660	0.253020
Ag1391	Ag139	0.190410	0.801230	0.664360
Ag1401	Ag140	0.245240	0.911730	0.689610
Ag1411	Ag141	0.242980	0.883040	0.615760
Ag1421	Ag142	0.613290	0.334270	0.850360
Ag1431	Ag143	0.735670	0.442400	0.903690
Ag1441	Ag144	0.629420	0.392410	0.916570
Ag1451	Ag145	0.241090	0.607630	0.335960
Ag1461	Ag146	0.179320	0.612040	0.297540
Ag1471	Ag147	0.291690	0.676510	0.279840
Ag1481	Ag148	0.934950	0.929380	0.013150
Ag1491	Ag149	0.056200	0.045510	0.063910
Ag1501	Ag150	0.548940	0.029150	0.054110
H7211	H721	0.879200	0.464400	0.503200
H7221	H722	0.840600	0.451500	0.479900
H7231	H723	0.816200	0.405200	0.492600
H7241	H724	0.796400	0.337600	0.376200
H7251	H725	0.858300	0.386900	0.376800
H7261	H726	0.830100	0.338600	0.389100
H7271	H727	0.963700	0.428600	0.373700
H7281	H728	0.001500	0.467000	0.353300
H7291	H729	0.999300	0.433500	0.363600
H7301	H730	0.189500	0.638500	0.467400
H7311	H731	0.202200	0.623100	0.446100
H7321	H732	0.201600	0.654800	0.436800
H7331	H733	0.224500	0.751000	0.548300
H7341	H734	0.206300	0.702900	0.539400
H7351	H735	0.202100	0.720600	0.513900
H7361	H736	0.987100	0.572300	0.541800
H7371	H737	0.029000	0.617100	0.573300
H7381	H738	0.023000	0.630700	0.545500
H7391	H739	0.903500	0.702200	0.998700
H7401	H740	0.886100	0.658000	0.978700
H7411	H741	0.843400	0.647200	0.977800
H7421	H742	0.793500	0.542800	0.077100
H7431	H743	0.744700	0.503800	0.047500
H7441	H744	0.787900	0.515000	0.049100
H7451	H745	0.797900	0.570700	0.135800
H7461	H746	0.791800	0.564800	0.168800
H7471	H747	0.747800	0.543700	0.144300
H7481	H748	0.907100	0.779100	0.196200
H7491	H749	0.846600	0.733800	0.197200
H7501	H750	0.886700	0.750500	0.222400
H7511	H751	0.980400	0.904600	0.136400
H7521	H752	0.940500	0.849100	0.144000
H7531	H753	0.003900	0.898800	0.156700
H7541	H754	0.980800	0.815200	0.031000
H7551	H755	0.956500	0.825300	0.021000
H7561	H756	0.019900	0.875100	0.034600
H7571	H757	0.693300	0.603800	0.183300
H7581	H758	0.714700	0.604100	0.158200
H7591	H759	0.755000	0.658000	0.184000
H7601	H760	0.780700	0.566500	0.246200
H7611	H761	0.835000	0.624700	0.242300
H7621	H762	0.795500	0.572600	0.215300
H7631	H763	0.733500	0.501100	0.288600
H7641	H764	0.698300	0.443900	0.289000
H7651	H765	0.737600	0.491000	0.319400
H7661	H766	0.537100	0.391700	0.323400
H7671	H767	0.560400	0.391900	0.350700
H7681	H768	0.521400	0.345200	0.320000
H7691	H769	0.479900	0.398300	0.287600
H7701	H770	0.430100	0.369600	0.263900
H7711	H771	0.462400	0.416200	0.293000
H7721	H772	0.598300	0.554400	0.206900
H7731	H773	0.576700	0.564300	0.221600
H7741	H774	0.538700	0.515200	0.192700
H7751	H775	0.731700	0.457900	0.389400
H7761	H776	0.713400	0.475400	0.387400
H7771	H777	0.740200	0.482700	0.363100
H7781	H778	0.505300	0.253000	0.296500
H7791	H779	0.536200	0.298200	0.279800
H7801	H780	0.509100	0.290300	0.304000
H7811	H781	0.400800	0.085500	0.260500
H7821	H782	0.453100	0.149600	0.270500
H7831	H783	0.412100	0.116000	0.290500
H7841	H784	0.540700	0.115700	0.341000
H7851	H785	0.520500	0.089000	0.305900
H7861	H786	0.479300	0.055200	0.325900
H7871	H787	0.660300	0.223400	0.387900
H7881	H788	0.701400	0.252200	0.419400
H7891	H789	0.719300	0.261700	0.389400
H7901	H790	0.837400	0.463400	0.434000
H7911	H791	0.789800	0.445000	0.435600
H7921	H792	0.806000	0.452600	0.405000
H7931	H793	0.330200	0.921700	0.290500
H7941	H794	0.391900	0.977200	0.309100
H7951	H795	0.352000	0.970200	0.308200
H7961	H796	0.428200	0.057600	0.198000
H7971	H797	0.441400	0.093800	0.224400
H7981	H798	0.480300	0.099600	0.225700
H7991	H799	0.402200	0.009200	0.134400
H8001	H800	0.445500	0.026900	0.122800
H8011	H801	0.396800	0.000300	0.099500
H8021	H802	0.324400	0.825200	0.072800
H8031	H803	0.317400	0.812200	0.104400
H8041	H804	0.269900	0.787300	0.081000
H8051	H805	0.235100	0.721900	0.147600
H8061	H806	0.262700	0.722200	0.170700
H8071	H807	0.199000	0.672700	0.161700
H8081	H808	0.255900	0.810200	0.269300
H8091	H809	0.220000	0.753300	0.271700
H8101	H810	0.283700	0.803800	0.278900
H8111	H811	0.119500	0.248500	0.154600
H8121	H812	0.095100	0.222400	0.119100
H8131	H813	0.089700	0.193700	0.140400
H8141	H814	0.307900	0.338800	0.121500
H8151	H815	0.260900	0.275900	0.109400
H8161	H816	0.266900	0.305900	0.089000
H8171	H817	0.403200	0.412200	0.163000
H8181	H818	0.463300	0.451600	0.175100
H8191	H819	0.414200	0.391300	0.177500
H8201	H820	0.445600	0.484700	0.298900
H8211	H821	0.454400	0.458100	0.299300
H8221	H822	0.502700	0.519300	0.298800
H8231	H823	0.365700	0.473700	0.315000
H8241	H824	0.341900	0.481200	0.329500
H8251	H825	0.321900	0.432900	0.332600
H8261	H826	0.151800	0.312000	0.215800
H8271	H827	0.129200	0.287100	0.243300
H8281	H828	0.148700	0.335000	0.240100
H8291	H829	0.149900	0.731900	0.705600
H8301	H830	0.110200	0.709800	0.724800
H8311	H831	0.166400	0.743300	0.740900
H8321	H832	0.247300	0.937100	0.751400
H8331	H833	0.255400	0.930400	0.782600
H8341	H834	0.199300	0.897200	0.766700
H8351	H835	0.068800	0.776400	0.780000
H8361	H836	0.072400	0.761300	0.750100
H8371	H837	0.119300	0.822900	0.767400
H8381	H838	0.209900	0.791200	0.828500
H8391	H839	0.247900	0.838000	0.812300
H8401	H840	0.200700	0.777100	0.793400
H8411	H841	0.223200	0.838100	0.551900
H8421	H842	0.167000	0.779000	0.530400
H8431	H843	0.218100	0.801300	0.537400
H8441	H844	0.132100	0.700600	0.642700
H8451	H845	0.138600	0.679800	0.619800
H8461	H846	0.085700	0.654500	0.612400
H8471	H847	0.606600	0.292400	0.791800
H8481	H848	0.641600	0.297000	0.780800
H8491	H849	0.644400	0.331300	0.771500
H8501	H850	0.830600	0.499900	0.886300
H8511	H851	0.845100	0.516200	0.855700
H8521	H852	0.842300	0.482300	0.866200
H8531	H853	0.844700	0.543700	0.948200
H8541	H854	0.863600	0.565200	0.983800
H8551	H855	0.871800	0.596500	0.963500
H8561	H856	0.648600	0.445900	0.971500
H8571	H857	0.695500	0.508800	0.983700
H8581	H858	0.686400	0.477900	0.005100
H8591	H859	0.852500	0.431400	0.812500
H8601	H860	0.794700	0.383300	0.818400
H8611	H861	0.841400	0.443300	0.838700
H8621	H862	0.747300	0.442000	0.738100
H8631	H863	0.750000	0.458000	0.771000
H8641	H864	0.700900	0.396200	0.753100
H8651	H865	0.207000	0.564900	0.390500
H8661	H866	0.199700	0.580600	0.417300
H8671	H867	0.150900	0.519200	0.398500
H8681	H868	0.099600	0.578000	0.319800
H8691	H869	0.054000	0.531500	0.334700
H8701	H870	0.102800	0.593000	0.353200
H8711	H871	0.131500	0.622200	0.268900
H8721	H872	0.164400	0.678200	0.267800
H8731	H873	0.125100	0.630300	0.237800
H8741	H874	0.332100	0.737100	0.233600
H8751	H875	0.305900	0.732400	0.205100
H8761	H876	0.345500	0.781800	0.234300
H8771	H877	0.280400	0.475500	0.320300
H8781	H878	0.242600	0.466500	0.331900
H8791	H879	0.283400	0.482000	0.355000
H8801	H880	0.105900	0.239500	0.308800
H8811	H881	0.118800	0.256800	0.278400
H8821	H882	0.160300	0.273800	0.302300
H8831	H883	0.884700	0.831600	0.010900
H8841	H884	0.902300	0.814100	0.017000
H8851	H885	0.872000	0.806600	0.038000
H8861	H886	0.096800	0.036400	0.111600
H8871	H887	0.064500	0.990100	0.127600
H8881	H888	0.099000	0.004100	0.107100
H8891	H889	0.154300	0.139600	0.106300
H8901	H890	0.205000	0.203400	0.113800
H8911	H891	0.162900	0.171400	0.133100
H8921	H892	0.046700	0.151500	0.036800
H8931	H893	0.068400	0.185800	0.069400
H8941	H894	0.107400	0.213900	0.048300
H8951	H895	0.536500	0.047900	0.108600
H8961	H896	0.500000	0.042100	0.118100
H8971	H897	0.494500	0.005300	0.126400
H8981	H898	0.329300	0.855400	0.002300
H8991	H899	0.306700	0.830500	0.029800
H9001	H900	0.311300	0.866500	0.021400
N3011	N301	0.480770	0.435740	0.034510
N3021	N302	0.486440	0.458180	0.061420
N3031	N303	0.578970	0.611930	0.075700
N3041	N304	0.606010	0.642190	0.055800
N3051	N305	0.609260	0.584460	0.984120
N3061	N306	0.573690	0.531060	0.979150
N3071	N307	0.120000	0.835970	0.454570
N3081	N308	0.067500	0.794300	0.438000
N3091	N309	0.016380	0.709800	0.351980
N3101	N310	0.051200	0.722900	0.338700
N3111	N311	0.214620	0.857170	0.387790
N3121	N312	0.232300	0.888200	0.416300
N3131	N313	0.856240	0.488360	0.283200
N3141	N314	0.834100	0.494500	0.268800
N3151	N315	0.680740	0.366010	0.208550
N3161	N316	0.647820	0.314050	0.200470
N3171	N317	0.705720	0.287160	0.242080
N3181	N318	0.757780	0.332300	0.260480
N3191	N319	0.500810	0.281300	0.140510
N3201	N320	0.475560	0.252100	0.161260
N3211	N321	0.342680	0.182160	0.179040
N3221	N322	0.325180	0.192880	0.167460
N3231	N323	0.403300	0.291060	0.109160
N3241	N324	0.445400	0.312300	0.102700
N3251	N325	0.207270	0.107240	0.260110
N3261	N326	0.259210	0.149230	0.280040
N3271	N327	0.281980	0.207390	0.367170
N3281	N328	0.241150	0.189220	0.374370
N3291	N329	0.085950	0.059360	0.312310
N3301	N330	0.079700	0.037620	0.286320
N3311	N331	0.654650	0.058770	0.344820
N3321	N332	0.683120	0.109820	0.352740
N3331	N333	0.725010	0.188160	0.288370
N3341	N334	0.712140	0.167520	0.258260
N3351	N335	0.652330	0.033190	0.236920
N3361	N336	0.638100	0.006630	0.258130
N3371	N337	0.610510	0.486510	0.791620
N3381	N338	0.646960	0.498590	0.781750
N3391	N339	0.460430	0.298880	0.686310
N3401	N340	0.452410	0.320020	0.675830
N3411	N341	0.708510	0.600890	0.900200
N3421	N342	0.658290	0.560830	0.879920
N3431	N343	0.027260	0.837760	0.658820
N3441	N344	0.052400	0.867830	0.637830
N3451	N345	0.036100	0.804870	0.556770
N3461	N346	0.008400	0.754600	0.551000
N3471	N347	0.172300	0.056200	0.727100
N3481	N348	0.191600	0.048400	0.744200
N3491	N349	0.728660	0.830870	0.150130
N3501	N350	0.745120	0.819670	0.165990
N3511	N351	0.888800	0.944240	0.235040
N3521	N352	0.920910	0.995900	0.243410
N3531	N353	0.527600	0.834730	0.152730
N3541	N354	0.483800	0.810730	0.161730
N3551	N355	0.386800	0.928300	0.458700
N3561	N356	0.410400	0.954100	0.436100
N3571	N357	0.549000	0.024700	0.431300
N3581	N358	0.565000	0.014000	0.447400
N3591	N359	0.426900	0.417900	0.442400
N3601	N360	0.405900	0.394400	0.466900
C7511	C751	0.450900	0.360500	0.013600
C7521	C752	0.462600	0.393700	0.039500
C7531	C753	0.455600	0.389370	0.068170
C7541	C754	0.471390	0.429300	0.081490
C7551	C755	0.473300	0.444400	0.112700
C7561	C756	0.583500	0.628500	0.130600
C7571	C757	0.601800	0.646300	0.102900
C7581	C758	0.642900	0.700000	0.099500
C7591	C759	0.643600	0.694700	0.069700
C7601	C760	0.680800	0.738400	0.053400
C7611	C761	0.682200	0.664700	0.965900
C7621	C762	0.641800	0.607400	0.965000
C7631	C763	0.629500	0.570800	0.948900
C7641	C764	0.586400	0.522500	0.957500
C7651	C765	0.559100	0.470700	0.948400
C7661	C766	0.173000	0.883600	0.509400
C7671	C767	0.122000	0.842000	0.484000
C7681	C768	0.068600	0.803000	0.487200
C7691	C769	0.036900	0.774800	0.457500
C7701	C770	0.975600	0.727400	0.444800
C7711	C771	0.919800	0.634300	0.348300
C7721	C772	0.964600	0.656500	0.338900
C7731	C773	0.964300	0.633300	0.317200
C7741	C774	0.019600	0.676900	0.318100
C7751	C775	0.044100	0.675200	0.298700
C7761	C776	0.240400	0.835300	0.360300
C7771	C777	0.249800	0.864600	0.388800
C7781	C778	0.288600	0.897700	0.415700
C7791	C779	0.274600	0.910800	0.431800
C7801	C780	0.303700	0.949000	0.464500
C7811	C781	0.939600	0.544500	0.320700
C7821	C782	0.906000	0.538100	0.301300
C7831	C783	0.916100	0.575900	0.299400
C7841	C784	0.870300	0.547200	0.279300
C7851	C785	0.856300	0.565300	0.267800
C7861	C786	0.674700	0.413500	0.200000
C7871	C787	0.651500	0.363700	0.195400
C7881	C788	0.598800	0.310600	0.179800
C7891	C789	0.599100	0.280700	0.182600
C7901	C790	0.554400	0.221000	0.171000
C7911	C791	0.625800	0.187800	0.222200
C7921	C792	0.684900	0.242900	0.239400
C7931	C793	0.725200	0.258800	0.257000
C7941	C794	0.770270	0.315200	0.268870
C7951	C795	0.825700	0.355600	0.288700
C7961	C796	0.584200	0.340800	0.124200
C7971	C797	0.548000	0.305400	0.143600
C7981	C798	0.553300	0.290800	0.166100
C7991	C799	0.506500	0.257300	0.176400
C8001	C800	0.490400	0.229300	0.201300
C8011	C801	0.340000	0.151100	0.222300
C8021	C802	0.324800	0.165000	0.204400
C8031	C803	0.295300	0.164800	0.208300
C8041	C804	0.295000	0.180900	0.183900
C8051	C805	0.268000	0.187800	0.177200
C8061	C806	0.356400	0.298400	0.100400
C8071	C807	0.399800	0.314800	0.097000
C8081	C808	0.442400	0.352500	0.082300
C8091	C809	0.469200	0.348940	0.086540
C8101	C810	0.518300	0.379600	0.077100
C8111	C811	0.164100	0.064200	0.203300
C8121	C812	0.213200	0.106100	0.231500
C8131	C813	0.271200	0.151200	0.234000
C8141	C814	0.295900	0.174800	0.264100
C8151	C815	0.354800	0.223400	0.280400
C8161	C816	0.381900	0.289200	0.381700
C8171	C817	0.329200	0.257800	0.384200
C8181	C818	0.319900	0.273000	0.404300
C8191	C819	0.265500	0.229500	0.397200
C8201	C820	0.229700	0.219900	0.411000
C8211	C821	0.046100	0.068000	0.334500
C8221	C822	0.048280	0.048580	0.309260
C8231	C823	0.015900	0.019200	0.279900
C8241	C824	0.037300	0.012000	0.265900
C8251	C825	0.019700	0.985700	0.233800
C8261	C826	0.590800	0.975300	0.362500
C8271	C827	0.625600	0.031500	0.364900
C8281	C828	0.634500	0.063300	0.385000
C8291	C829	0.669500	0.110900	0.377000
C8301	C830	0.694700	0.161100	0.390400
C8311	C831	0.743800	0.249200	0.321600
C8321	C832	0.731500	0.222400	0.291100
C8331	C833	0.720200	0.224200	0.262600
C8341	C834	0.708110	0.188800	0.242310
C8351	C835	0.691800	0.172100	0.208300
C8361	C836	0.635400	0.014100	0.180500
C8371	C837	0.628700	0.998700	0.209400
C8381	C838	0.597600	0.948100	0.213100
C8391	C839	0.605300	0.956500	0.244800
C8401	C840	0.583100	0.918400	0.263100
C8411	C841	0.514600	0.423000	0.775200
C8421	C842	0.561990	0.444500	0.769890
C8431	C843	0.564600	0.427000	0.745600
C8441	C844	0.618700	0.463000	0.753500
C8451	C845	0.648400	0.466400	0.736600
C8461	C846	0.517300	0.323400	0.730300
C8471	C847	0.500640	0.333870	0.712710
C8481	C848	0.520200	0.378800	0.718600
C8491	C849	0.489200	0.368200	0.695400
C8501	C850	0.490400	0.401100	0.689700
C8511	C851	0.755700	0.653900	0.954400
C8521	C852	0.706200	0.611500	0.927300
C8531	C853	0.652000	0.575620	0.925020
C8541	C854	0.625160	0.546230	0.894590
C8551	C855	0.565800	0.502900	0.878500
C8561	C856	0.029400	0.853500	0.712700
C8571	C857	0.047200	0.871700	0.684700
C8581	C858	0.086900	0.923800	0.681300
C8591	C859	0.088700	0.919700	0.650800
C8601	C860	0.122600	0.960800	0.634200
C8611	C861	0.096000	0.883100	0.534900
C8621	C862	0.062100	0.828400	0.535300
C8631	C863	0.050900	0.794650	0.514950
C8641	C864	0.018600	0.749800	0.526200
C8651	C865	0.995700	0.700700	0.515600
C8661	C866	0.102500	0.007200	0.681500
C8671	C867	0.131500	0.011000	0.702500
C8681	C868	0.123300	0.974600	0.703700
C8691	C869	0.162400	0.000300	0.729900
C8701	C870	0.175200	0.982500	0.743100
C8711	C871	0.658900	0.784300	0.102600
C8721	C872	0.688100	0.786800	0.124700
C8731	C873	0.680000	0.749700	0.124100
C8741	C874	0.718300	0.773600	0.149700
C8751	C875	0.729200	0.753900	0.161500
C8761	C876	0.890800	0.893100	0.242900
C8771	C877	0.916100	0.944200	0.248100
C8781	C878	0.969900	0.998100	0.263400
C8791	C879	0.971200	0.029800	0.260600
C8801	C880	0.016500	0.090700	0.273000
C8811	C881	0.627300	0.924900	0.165400
C8821	C882	0.573810	0.887340	0.170150
C8831	C883	0.561600	0.897600	0.191000
C8841	C884	0.504100	0.847800	0.185100
C8851	C885	0.468000	0.834700	0.200300
C8861	C886	0.303000	0.871400	0.473600
C8871	C887	0.339300	0.905500	0.452600
C8881	C888	0.332800	0.915800	0.428000
C8891	C889	0.377900	0.945000	0.417500
C8901	C890	0.391700	0.966600	0.390300
C8911	C891	0.556900	0.054000	0.386900
C8921	C892	0.571200	0.043100	0.407900
C8931	C893	0.603700	0.046000	0.407500
C8941	C894	0.599600	0.028400	0.432800
C8951	C895	0.626500	0.023600	0.445700
C8961	C896	0.411300	0.389800	0.388700
C8971	C897	0.398500	0.376500	0.418000
C8981	C898	0.361000	0.326700	0.425900
C8991	C899	0.369100	0.342300	0.456200
C9001	C900	0.339250	0.305600	0.477650
Ag1511	Ag151	0.522670	0.482390	0.005320
Ag1521	Ag152	0.528430	0.533040	0.066790
Ag1531	Ag153	0.602680	0.611200	0.017640
Ag1541	Ag154	0.176120	0.865450	0.433230
Ag1551	Ag155	0.046150	0.758930	0.393280
Ag1561	Ag156	0.134590	0.794270	0.360680
Ag1571	Ag157	0.807720	0.410630	0.270670
Ag1581	Ag158	0.758360	0.429870	0.237310
Ag1591	Ag159	0.675890	0.299550	0.220200
Ag1601	Ag160	0.471520	0.294430	0.120210
Ag1611	Ag161	0.406180	0.213490	0.166770
Ag1621	Ag162	0.359940	0.237580	0.135820
Ag1631	Ag163	0.143260	0.068410	0.275130
Ag1641	Ag164	0.267970	0.173370	0.324420
Ag1651	Ag165	0.161870	0.119670	0.345460
Ag1661	Ag166	0.651120	0.035760	0.302800
Ag1671	Ag167	0.709630	0.150260	0.320270
Ag1681	Ag168	0.686640	0.103280	0.246980
Ag1691	Ag169	0.636870	0.526050	0.835640
Ag1701	Ag170	0.722120	0.555630	0.810390
Ag1711	Ag171	0.767280	0.627220	0.884240
Ag1721	Ag172	0.983910	0.762930	0.649640
Ag1731	Ag173	0.038710	0.831980	0.596310
Ag1741	Ag174	0.975840	0.712850	0.583430
Ag1751	Ag175	0.771670	0.905130	0.164040
Ag1761	Ag176	0.814500	0.881780	0.202460
Ag1771	Ag177	0.896670	0.011850	0.220160
Ag1781	Ag178	0.416230	0.921800	0.486850
Ag1791	Ag179	0.481600	0.992290	0.436090
Ag1801	Ag180	0.475040	0.494830	0.445890
H9011	H901	0.461200	0.376000	0.996800
H9021	H902	0.471600	0.360700	0.020100
H9031	H903	0.412600	0.323600	0.007400
H9041	H904	0.461400	0.420200	0.123800
H9051	H905	0.510100	0.481500	0.123200
H9061	H906	0.449500	0.441000	0.110900
H9071	H907	0.554900	0.590000	0.126300
H9081	H908	0.613700	0.648200	0.146700
H9091	H909	0.569900	0.635700	0.136400
H9101	H910	0.671100	0.722100	0.032600
H9111	H911	0.677000	0.756100	0.053900
H9121	H912	0.718000	0.764800	0.063200
H9131	H913	0.702700	0.676200	0.951700
H9141	H914	0.663500	0.666900	0.960600
H9151	H915	0.706700	0.688200	0.986100
H9161	H916	0.530500	0.445300	0.958200
H9171	H917	0.543800	0.455700	0.926700
H9181	H918	0.585200	0.477500	0.954500
H9191	H919	0.203500	0.904800	0.501300
H9201	H920	0.179300	0.907400	0.521300
H9211	H921	0.169400	0.865600	0.522200
H9221	H922	0.965700	0.716400	0.422900
H9231	H923	0.956300	0.697200	0.452500
H9241	H924	0.965900	0.738800	0.450900
H9251	H925	0.934900	0.662100	0.364200
H9261	H926	0.896000	0.623000	0.331200
H9271	H927	0.899400	0.603500	0.355700
H9281	H928	0.082900	0.710900	0.303800
H9291	H929	0.036600	0.649400	0.302800
H9301	H930	0.028100	0.664300	0.277600
H9311	H931	0.268200	0.844000	0.363600
H9321	H932	0.205100	0.796500	0.356000
H9331	H933	0.242100	0.847200	0.343300
H9341	H934	0.284200	0.949800	0.469000
H9351	H935	0.304300	0.935500	0.479000
H9361	H936	0.340500	0.985300	0.465400
H9371	H937	0.920500	0.510000	0.316700
H9381	H938	0.945900	0.556500	0.341800
H9391	H939	0.974000	0.571000	0.316000
H9401	H940	0.820300	0.534500	0.253800
H9411	H941	0.882400	0.592700	0.257700
H9421	H942	0.857300	0.580200	0.284700
H9431	H943	0.712500	0.444900	0.211400
H9441	H944	0.654900	0.409300	0.211000
H9451	H945	0.671600	0.418200	0.180600
H9461	H946	0.568300	0.213700	0.176600
H9471	H947	0.541200	0.209700	0.149300
H9481	H948	0.525200	0.201400	0.180000
H9491	H949	0.610700	0.192300	0.212400
H9501	H950	0.605700	0.166200	0.236100
H9511	H951	0.623200	0.169400	0.207000
H9521	H952	0.847500	0.391400	0.293100
H9531	H953	0.842700	0.355100	0.278400
H9541	H954	0.822500	0.346000	0.307300
H9551	H955	0.568500	0.342300	0.110600
H9561	H956	0.588000	0.326000	0.112600
H9571	H957	0.619600	0.377100	0.136900
H9581	H958	0.456500	0.208800	0.203500
H9591	H959	0.518400	0.256400	0.220200
H9601	H960	0.486300	0.205100	0.196000
H9611	H961	0.325000	0.140300	0.239500
H9621	H962	0.379100	0.182600	0.229500
H9631	H963	0.325500	0.121600	0.209500
H9641	H964	0.274700	0.199700	0.159000
H9651	H965	0.283100	0.214600	0.194100
H9661	H966	0.229300	0.153400	0.174100
H9671	H967	0.335500	0.272400	0.112100
H9681	H968	0.332800	0.282000	0.080600
H9691	H969	0.372300	0.329900	0.110600
H9701	H970	0.529400	0.403400	0.066000
H9711	H971	0.509400	0.354200	0.064400
H9721	H972	0.547600	0.401000	0.095000
H9731	H973	0.131200	0.039700	0.209500
H9741	H974	0.168100	0.082800	0.190900
H9751	H975	0.162000	0.043800	0.191800
H9761	H976	0.359600	0.230200	0.302000
H9771	H977	0.369400	0.217000	0.275600
H9781	H978	0.373900	0.254600	0.274300
H9791	H979	0.374800	0.267800	0.365600
H9801	H980	0.404100	0.322700	0.377200
H9811	H981	0.400800	0.297300	0.400500
H9821	H982	0.252400	0.251600	0.427200
H9831	H983	0.207800	0.213000	0.395600
H9841	H984	0.206300	0.188900	0.419000
H9851	H985	0.074300	0.087500	0.352400
H9861	H986	0.051500	0.092000	0.329300
H9871	H987	0.011000	0.037300	0.338300
H9881	H988	0.040900	0.986600	0.230700
H9891	H989	0.981600	0.948300	0.228300
H9901	H990	0.024900	0.004800	0.221100
H9911	H991	0.593900	0.964900	0.345400
H9921	H992	0.603300	0.976000	0.380900
H9931	H993	0.553300	0.949300	0.359600
H9941	H994	0.717300	0.186400	0.378500
H9951	H995	0.666500	0.151500	0.390600
H9961	H996	0.716900	0.177900	0.411000
H9971	H997	0.749200	0.240200	0.337000
H9981	H998	0.776500	0.288200	0.324900
H9991	H999	0.713800	0.236700	0.322500
H10001	H1000	0.685800	0.146700	0.201100
H10011	H1001	0.658800	0.155100	0.200700
H10021	H1002	0.720500	0.203900	0.201200
H10031	H1003	0.658700	0.050700	0.185000
H10041	H1004	0.651700	0.012400	0.170500
H10051	H1005	0.600300	0.989300	0.167400
H10061	H1006	0.596200	0.936000	0.284200
H10071	H1007	0.543800	0.885900	0.256700
H10081	H1008	0.594900	0.908600	0.259900
H10091	H1009	0.526300	0.444300	0.794400
H10101	H1010	0.485000	0.385400	0.775200
H10111	H1011	0.502400	0.425500	0.759100
H10121	H1012	0.685700	0.495900	0.748600
H10131	H1013	0.647800	0.472800	0.717400
H10141	H1014	0.630500	0.432600	0.733300
H10151	H1015	0.496400	0.288800	0.720000
H10161	H1016	0.511200	0.322300	0.749900
H10171	H1017	0.555500	0.351900	0.732600
H10181	H1018	0.462700	0.381400	0.671500
H10191	H1019	0.525700	0.435600	0.687700
H10201	H1020	0.483700	0.407300	0.706600
H10211	H1021	0.786200	0.671300	0.948100
H10221	H1022	0.748600	0.636600	0.969600
H10231	H1023	0.763900	0.680700	0.962600
H10241	H1024	0.557900	0.489400	0.857300
H10251	H1025	0.560000	0.518800	0.880200
H10261	H1026	0.542100	0.473300	0.887600
H10271	H1027	0.000600	0.814800	0.708200
H10281	H1028	0.016200	0.860800	0.719200
H10291	H1029	0.059800	0.872900	0.728500
H10301	H1030	0.113600	0.944300	0.613700
H10311	H1031	0.160500	0.989400	0.644300
H10321	H1032	0.116100	0.976100	0.633800
H10331	H1033	0.095500	0.896500	0.551800
H10341	H1034	0.081400	0.879800	0.516200
H10351	H1035	0.133000	0.908300	0.536500
H10361	H1036	0.974400	0.677100	0.528500
H10371	H1037	0.025100	0.711800	0.516300
H10381	H1038	0.972800	0.681300	0.494900
H10391	H1039	0.118900	0.040000	0.687500
H10401	H1040	0.064900	0.976300	0.681600
H10411	H1041	0.104600	0.002700	0.661300
H10421	H1042	0.203900	0.009200	0.761900
H10431	H1043	0.187000	0.979000	0.729000
H10441	H1044	0.143100	0.947800	0.746900
H10451	H1045	0.674400	0.816500	0.109500
H10461	H1046	0.663300	0.782400	0.082700
H10471	H1047	0.620700	0.752400	0.101500
H10481	H1048	0.758200	0.779800	0.180200
H10491	H1049	0.696800	0.719300	0.165300
H10501	H1050	0.739800	0.749600	0.146800
H10511	H1051	0.853300	0.862600	0.231100
H10521	H1052	0.910400	0.896600	0.232200
H10531	H1053	0.892500	0.887300	0.262200
H10541	H1054	0.003500	0.098500	0.266400
H10551	H1055	0.027300	0.100800	0.294900
H10561	H1056	0.047500	0.111200	0.265700
H10571	H1057	0.655200	0.960100	0.179700
H10581	H1058	0.634600	0.910700	0.168100
H10591	H1059	0.627000	0.928400	0.145000
H10601	H1060	0.430700	0.797100	0.191200
H10611	H1061	0.478400	0.840400	0.221600
H10621	H1062	0.471500	0.858000	0.197700
H10631	H1063	0.320700	0.873800	0.489100
H10641	H1064	0.297100	0.885300	0.483000
H10651	H1065	0.268600	0.834000	0.462000
H10661	H1066	0.424800	0.985200	0.388400
H10671	H1067	0.362500	0.936900	0.372400
H10681	H1068	0.397000	0.991900	0.392900
H10691	H1069	0.533300	0.048000	0.393700
H10701	H1070	0.589600	0.091200	0.386200
H10711	H1071	0.538300	0.029800	0.366900
H10721	H1072	0.614700	0.009900	0.463200
H10731	H1073	0.616400	0.999000	0.430600
H10741	H1074	0.665600	0.059100	0.451700
H10751	H1075	0.439300	0.427900	0.391400
H10761	H1076	0.424000	0.381900	0.381900
H10771	H1077	0.378900	0.368100	0.373600
H10781	H1078	0.353100	0.327000	0.497700
H10791	H1079	0.300700	0.276900	0.470200
H10801	H1080	0.345100	0.289900	0.478600
N3611	N361	0.946260	0.980770	0.545030
N3621	N362	0.925020	0.986440	0.528260
N3631	N363	0.003270	0.078970	0.467040
N3641	N364	0.050210	0.106010	0.463820
N3651	N365	0.125140	0.109260	0.524800
N3661	N366	0.094540	0.073690	0.542630
N3671	N367	0.165430	0.620000	0.784030
N3681	N368	0.129500	0.567500	0.773200
N3691	N369	0.164400	0.516380	0.806580
N3701	N370	0.212500	0.551200	0.828300
N3711	N371	0.326830	0.714620	0.857450
N3721	N372	0.316000	0.732300	0.844100
N3731	N373	0.073040	0.356240	0.867880
N3741	N374	0.065300	0.334100	0.839600
N3751	N375	0.972190	0.180740	0.814730
N3761	N376	0.947350	0.147820	0.833770
N3771	N377	0.963640	0.205720	0.918560
N3781	N378	0.997300	0.257780	0.925480
N3791	N379	0.860300	0.000810	0.719510
N3801	N380	0.814300	0.975560	0.723460
N3811	N381	0.663640	0.842680	0.660520
N3821	N382	0.657720	0.825180	0.632300
N3831	N383	0.794140	0.903300	0.612240
N3841	N384	0.842700	0.945400	0.633100
N3851	N385	0.447160	0.707270	0.600030
N3861	N386	0.479170	0.759210	0.609980
N3871	N387	0.414810	0.781980	0.574590
N3881	N388	0.366780	0.741150	0.551930
N3891	N389	0.273640	0.585950	0.526590
N3901	N390	0.293380	0.579700	0.542080
N3911	N391	0.809830	0.154650	0.095880
N3921	N392	0.830380	0.183120	0.073300
N3931	N393	0.936640	0.225010	0.036850
N3941	N394	0.953880	0.212140	0.044620
N3951	N395	0.915410	0.152330	0.119140
N3961	N396	0.879970	0.138100	0.131470
N3971	N397	0.318890	0.110510	0.624000
N3981	N398	0.365210	0.146960	0.648370
N3991	N399	0.274120	0.960430	0.661550
N4001	N400	0.276580	0.952410	0.632390
N4011	N401	0.308310	0.208510	0.607620
N4021	N402	0.278370	0.158290	0.597460
N4031	N403	0.868440	0.527260	0.689500
N4041	N404	0.914570	0.552400	0.684570
N4051	N405	0.979330	0.536100	0.731230
N4061	N406	0.957400	0.508400	0.753800
N4071	N407	0.945200	0.672300	0.616100
N4081	N408	0.947400	0.691600	0.643200
N4091	N409	0.078530	0.228660	0.397790
N4101	N410	0.079130	0.245120	0.425450
N4111	N411	0.153760	0.388800	0.444560
N4121	N412	0.177500	0.420910	0.425010
N4131	N413	0.874870	0.027600	0.192870
N4141	N414	0.822070	0.983800	0.173070
N4151	N415	0.428100	0.886800	0.958500
N4161	N416	0.474300	0.910400	0.956300
N4171	N417	0.617700	0.049000	0.024300
N4181	N418	0.617600	0.065000	0.051000
N4191	N419	0.484500	0.926900	0.509000
N4201	N420	0.439000	0.905900	0.511500
C9011	C901	0.937300	0.950900	0.590400
C9021	C902	0.923100	0.962600	0.568900
C9031	C903	0.887430	0.955600	0.566230
C9041	C904	0.889900	0.971390	0.542090
C9051	C905	0.860600	0.973300	0.528900
C9061	C906	0.952900	0.083500	0.455000
C9071	C907	0.998900	0.101800	0.455500
C9081	C908	0.043400	0.142900	0.442900
C9091	C909	0.073900	0.143600	0.448900
C9101	C910	0.127400	0.180800	0.442400
C9111	C911	0.216300	0.182200	0.517500
C9121	C912	0.176800	0.141800	0.534400
C9131	C913	0.180600	0.129500	0.558700
C9141	C914	0.128900	0.086400	0.563900
C9151	C915	0.110700	0.059100	0.588400
C9161	C916	0.163600	0.673000	0.789400
C9171	C917	0.138000	0.622000	0.780000
C9181	C918	0.081400	0.568600	0.765600
C9191	C919	0.079400	0.536900	0.762100
C9201	C920	0.030800	0.475600	0.748200
C9211	C921	0.071500	0.419800	0.785500
C9221	C922	0.125700	0.464600	0.808100
C9231	C923	0.147100	0.464300	0.831000
C9241	C924	0.201500	0.519600	0.842700
C9251	C925	0.245400	0.544100	0.868900
C9261	C926	0.380100	0.740400	0.905100
C9271	C927	0.361000	0.749800	0.885200
C9281	C928	0.372900	0.788600	0.890900
C9291	C929	0.342800	0.774600	0.863800
C9301	C930	0.339200	0.803700	0.854700
C9311	C931	0.118900	0.439600	0.895100
C9321	C932	0.104700	0.406000	0.867900
C9331	C933	0.116700	0.416100	0.840200
C9341	C934	0.091000	0.370300	0.823100
C9351	C935	0.088500	0.356300	0.791000
C9361	C936	0.974700	0.174700	0.761200
C9371	C937	0.956100	0.151500	0.787800
C9381	C938	0.919000	0.098800	0.788200
C9391	C939	0.916500	0.099100	0.818400
C9401	C940	0.883400	0.054400	0.833400
C9411	C941	0.903600	0.125800	0.938000
C9421	C942	0.945500	0.184900	0.942000
C9431	C943	0.968200	0.225200	0.966400
C9441	C944	0.001400	0.270270	0.955070
C9451	C945	0.037000	0.325700	0.970100
C9461	C946	0.960000	0.084200	0.743400
C9471	C947	0.904400	0.048000	0.742600
C9481	C948	0.887200	0.053300	0.762500
C9491	C949	0.830100	0.006500	0.749200
C9501	C950	0.789100	0.990400	0.761100
C9511	C951	0.617700	0.840000	0.688900
C9521	C952	0.620400	0.824800	0.659800
C9531	C953	0.587000	0.795300	0.630500
C9541	C954	0.611100	0.795000	0.614100
C9551	C955	0.590800	0.768000	0.580200
C9561	C956	0.756000	0.856400	0.558000
C9571	C957	0.802800	0.899800	0.585000
C9581	C958	0.860100	0.942400	0.589900
C9591	C959	0.882660	0.969200	0.620260
C9601	C960	0.941200	0.018300	0.638700
C9611	C961	0.460800	0.664100	0.599900
C9621	C962	0.481700	0.713200	0.607100
C9631	C963	0.537200	0.771200	0.620000
C9641	C964	0.531800	0.795900	0.621100
C9651	C965	0.574400	0.854800	0.631400
C9661	C966	0.500200	0.881900	0.592700
C9671	C967	0.445000	0.829200	0.571400
C9681	C968	0.415600	0.819900	0.546900
C9691	C969	0.368300	0.765500	0.536000
C9701	C970	0.318700	0.729700	0.509800
C9711	C971	0.211600	0.546100	0.478100
C9721	C972	0.239020	0.548280	0.499700
C9731	C973	0.236000	0.515900	0.496700
C9741	C974	0.271400	0.537300	0.525300
C9751	C975	0.285900	0.519700	0.534000
C9761	C976	0.728300	0.090800	0.115500
C9771	C977	0.760700	0.125600	0.094100
C9781	C978	0.749500	0.134500	0.071200
C9791	C979	0.792500	0.169500	0.058600
C9801	C980	0.804300	0.194700	0.033600
C9811	C981	0.922200	0.243800	0.994600
C9821	C982	0.940400	0.231500	0.009100
C9831	C983	0.957600	0.220200	0.996000
C9841	C984	0.965800	0.208110	0.019310
C9851	C985	0.983500	0.191800	0.019700
C9861	C986	0.954900	0.135400	0.121300
C9871	C987	0.919300	0.128700	0.130000
C9881	C988	0.884500	0.097600	0.149500
C9891	C989	0.860500	0.105300	0.148800
C9901	C990	0.820000	0.083100	0.164700
C9911	C991	0.239400	0.014600	0.591600
C9921	C992	0.292100	0.061990	0.617490
C9931	C993	0.319000	0.064600	0.637600
C9941	C994	0.365200	0.118700	0.655700
C9951	C995	0.411800	0.148400	0.682000
C9961	C996	0.287000	0.017300	0.693900
C9971	C997	0.287930	0.000640	0.666770
C9981	C998	0.301600	0.020200	0.641400
C9991	C999	0.293800	0.989200	0.621000
C10001	C1000	0.300700	0.990400	0.589300
C10011	C1001	0.301300	0.255700	0.601800
C10021	C1002	0.278900	0.206200	0.594700
C10031	C1003	0.226980	0.152000	0.576380
C10041	C1004	0.230570	0.125160	0.578930
C10051	C1005	0.187300	0.065800	0.562900
C10061	C1006	0.816700	0.529400	0.675900
C10071	C1007	0.862500	0.547200	0.675500
C10081	C1008	0.905600	0.586900	0.663100
C10091	C1009	0.937900	0.588700	0.669000
C10101	C1010	0.988400	0.622600	0.661800
C10111	C1011	0.061100	0.596000	0.712900
C10121	C1012	0.026800	0.562100	0.733700
C10131	C1013	0.035950	0.550900	0.756250
C10141	C1014	0.992400	0.518600	0.768800
C10151	C1015	0.980100	0.495700	0.795000
C10161	C1016	0.921000	0.602500	0.595300
C10171	C1017	0.929000	0.631500	0.620500
C10181	C1018	0.919600	0.623300	0.648700
C10191	C1019	0.932500	0.662400	0.662100
C10201	C1020	0.932100	0.675200	0.692700
C10211	C1021	0.056300	0.158900	0.374600
C10221	C1022	0.063400	0.188100	0.401300
C10231	C1023	0.055900	0.180000	0.430300
C10241	C1024	0.068600	0.218300	0.444700
C10251	C1025	0.067700	0.229200	0.475300
C10261	C1026	0.147900	0.390800	0.497700
C10271	C1027	0.168000	0.416100	0.471900
C10281	C1028	0.206500	0.469900	0.471800
C10291	C1029	0.210600	0.471200	0.441400
C10301	C1030	0.243500	0.516500	0.425800
C10311	C1031	0.961900	0.127300	0.202400
C10321	C1032	0.903660	0.073810	0.186470
C10331	C1033	0.870600	0.061600	0.164000
C10341	C1034	0.819000	0.004100	0.156300
C10351	C1035	0.767700	0.968000	0.133300
C10361	C1036	0.329400	0.803000	0.931600
C10371	C1037	0.386700	0.839300	0.933800
C10381	C1038	0.404800	0.832800	0.917000
C10391	C1039	0.460400	0.877900	0.932900
C10401	C1040	0.501400	0.891700	0.925100
C10411	C1041	0.670000	0.056900	0.002900
C10421	C1042	0.663300	0.071200	0.028100
C10431	C1043	0.696200	0.103700	0.057700
C10441	C1044	0.666800	0.099600	0.071200
C10451	C1045	0.680800	0.126500	0.102900
C10461	C1046	0.522600	0.911300	0.521500
C10471	C1047	0.480500	0.898500	0.522000
C10481	C1048	0.435100	0.861000	0.534300
C10491	C1049	0.412900	0.869100	0.526800
C10501	C1050	0.361600	0.839250	0.533650
Ag1811	Ag181	0.017350	0.022670	0.540280
Ag1821	Ag182	0.961650	0.028430	0.495400
Ag1831	Ag183	0.085040	0.102680	0.491480
Ag1841	Ag184	0.242890	0.676120	0.810670
Ag1851	Ag185	0.152870	0.546150	0.787220
Ag1861	Ag186	0.273910	0.634590	0.840320
Ag1871	Ag187	0.037050	0.307720	0.897090
Ag1881	Ag188	0.021050	0.258360	0.828490
Ag1891	Ag189	0.955690	0.175890	0.876340
Ag1901	Ag190	0.851310	0.971520	0.677090
Ag1911	Ag191	0.739410	0.906180	0.692690
Ag1921	Ag192	0.724120	0.859940	0.622360
Ag1931	Ag193	0.368130	0.643260	0.574850
Ag1941	Ag194	0.443550	0.767970	0.594600
Ag1951	Ag195	0.316410	0.661870	0.542200
Ag1961	Ag196	0.848320	0.151120	0.115360
Ag1971	Ag197	0.889360	0.209630	0.059370
Ag1981	Ag198	0.939660	0.186640	0.083360
Ag1991	Ag199	0.301230	0.136870	0.610820
Ag2001	Ag200	0.411730	0.222120	0.666490
Ag2011	Ag201	0.383040	0.267280	0.640060
Ag2021	Ag202	0.834270	0.483910	0.720980
Ag2031	Ag203	0.942400	0.538710	0.706730
Ag2041	Ag204	0.892410	0.475840	0.762990
Ag2051	Ag205	0.107630	0.271670	0.366540
Ag2061	Ag206	0.112040	0.314500	0.432720
Ag2071	Ag207	0.176510	0.396670	0.384820
Ag2081	Ag208	0.429380	0.916230	0.994430
Ag2091	Ag209	0.545510	0.981600	0.989310
Ag2101	Ag210	0.529150	0.975040	0.480210
H10811	H1081	0.964400	0.961200	0.585200
H10821	H1082	0.951500	0.971600	0.610900
H10831	H1083	0.905200	0.912600	0.589000
H10841	H1084	0.837600	0.961400	0.541200
H10851	H1085	0.886900	0.010100	0.528600
H10861	H1086	0.838600	0.949500	0.508500
H10871	H1087	0.928600	0.054900	0.464900
H10881	H1088	0.967000	0.113700	0.465500
H10891	H1089	0.933500	0.069900	0.434200
H10901	H1090	0.138500	0.171100	0.449000
H10911	H1091	0.123100	0.177000	0.420900
H10921	H1092	0.154800	0.218000	0.453200
H10931	H1093	0.251000	0.202700	0.526500
H10941	H1094	0.202900	0.163500	0.496600
H10951	H1095	0.220600	0.206700	0.518500
H10961	H1096	0.072300	0.030500	0.585200
H10971	H1097	0.117100	0.043800	0.588100
H10981	H1098	0.130700	0.085200	0.607700
H10991	H1099	0.202200	0.703500	0.798700
H11001	H1100	0.158000	0.679300	0.771900
H11011	H1101	0.147200	0.669400	0.803800
H11021	H1102	0.042800	0.465700	0.749300
H11031	H1103	0.003800	0.456300	0.759100
H11041	H1104	0.015000	0.465900	0.727100
H11051	H1105	0.070700	0.434900	0.772800
H11061	H1106	0.064800	0.396000	0.773000
H11071	H1107	0.043700	0.399400	0.795900
H11081	H1108	0.279100	0.582900	0.872000
H11091	H1109	0.233800	0.536600	0.887200
H11101	H1110	0.250500	0.528100	0.863800
H11111	H1111	0.404600	0.768200	0.924200
H11121	H1112	0.349100	0.705100	0.908600
H11131	H1113	0.398800	0.742100	0.894900
H11141	H1114	0.315200	0.784200	0.834400
H11151	H1115	0.325300	0.804300	0.868800
H11161	H1116	0.375100	0.840500	0.855200
H11171	H1117	0.103800	0.420500	0.910500
H11181	H1118	0.104100	0.445900	0.889400
H11191	H1119	0.158000	0.474000	0.903000
H11201	H1120	0.066500	0.320300	0.785800
H11211	H1121	0.124700	0.382400	0.789700
H11221	H1122	0.072600	0.357300	0.777100
H11231	H1123	0.001100	0.212500	0.767600
H11241	H1124	0.943900	0.154900	0.745600
H11251	H1125	0.991000	0.171600	0.753400
H11261	H1126	0.891700	0.068300	0.854600
H11271	H1127	0.891900	0.041200	0.831500
H11281	H1128	0.845200	0.025200	0.823800
H11291	H1129	0.898300	0.110700	0.918400
H11301	H1130	0.869600	0.105700	0.939500
H11311	H1131	0.916200	0.123200	0.953800
H11321	H1132	0.054400	0.347500	0.956100
H11331	H1133	0.064300	0.342700	0.987600
H11341	H1134	0.015200	0.322500	0.976500
H11351	H1135	0.957900	0.068500	0.726200
H11361	H1136	0.975400	0.088000	0.762000
H11371	H1137	0.982700	0.119600	0.742500
H11381	H1138	0.753000	0.956500	0.747700
H11391	H1139	0.798200	0.018400	0.762000
H11401	H1140	0.790300	0.986300	0.781200
H11411	H1141	0.585500	0.825000	0.684700
H11421	H1142	0.649600	0.879100	0.696500
H11431	H1143	0.616000	0.825500	0.703900
H11441	H1144	0.615700	0.774700	0.575000
H11451	H1145	0.589000	0.783100	0.568500
H11461	H1146	0.555200	0.729300	0.575900
H11471	H1147	0.723400	0.835500	0.563100
H11481	H1148	0.752200	0.832800	0.550800
H11491	H1149	0.761700	0.872300	0.542400
H11501	H1150	0.963400	0.029400	0.626000
H11511	H1151	0.945000	0.009400	0.655200
H11521	H1152	0.952600	0.047600	0.646600
H11531	H1153	0.421700	0.631200	0.591500
H11541	H1154	0.477200	0.668100	0.585300
H11551	H1155	0.470200	0.662000	0.618200
H11561	H1156	0.557600	0.859600	0.629400
H11571	H1157	0.593800	0.869400	0.652400
H11581	H1158	0.599600	0.873900	0.619300
H11591	H1159	0.509200	0.874800	0.607000
H11601	H1160	0.526900	0.904100	0.581400
H11611	H1161	0.500300	0.900800	0.603500
H11621	H1162	0.325200	0.752400	0.500800
H11631	H1163	0.312200	0.707800	0.494800
H11641	H1164	0.287300	0.706300	0.517400
H11651	H1165	0.221900	0.574300	0.486800
H11661	H1166	0.222200	0.551500	0.459500
H11671	H1167	0.172700	0.511000	0.473700
H11681	H1168	0.310200	0.540900	0.554300
H11691	H1169	0.253300	0.481600	0.533300
H11701	H1170	0.303800	0.524900	0.520100
H11711	H1171	0.748500	0.093900	0.129000
H11721	H1172	0.722400	0.103300	0.127300
H11731	H1173	0.693700	0.053300	0.104000
H11741	H1174	0.838800	0.217300	0.030900
H11751	H1175	0.775900	0.166500	0.015000
H11761	H1176	0.805900	0.216900	0.039000
H11771	H1177	0.912200	0.249200	0.009000
H11781	H1178	0.951600	0.276500	0.988300
H11791	H1179	0.891300	0.213800	0.977100
H11801	H1180	0.984700	0.185800	0.039100
H11811	H1181	0.958100	0.158800	0.003700
H11821	H1182	0.019300	0.220500	0.016600
H11831	H1183	0.973700	0.158700	0.108000
H11841	H1184	0.981200	0.151700	0.139300
H11851	H1185	0.932900	0.100300	0.111000
H11861	H1186	0.812000	0.096200	0.160200
H11871	H1187	0.787100	0.043800	0.157900
H11881	H1188	0.835000	0.094900	0.186300
H11891	H1189	0.231900	0.026300	0.582000
H11901	H1190	0.209800	0.985000	0.599600
H11911	H1191	0.243300	0.002400	0.576900
H11921	H1192	0.437100	0.185700	0.689800
H11931	H1193	0.430400	0.147800	0.675000
H11941	H1194	0.397200	0.130500	0.697900
H11951	H1195	0.276400	0.996400	0.707600
H11961	H1196	0.261300	0.011200	0.688900
H11971	H1197	0.322900	0.055500	0.703600
H11981	H1198	0.291200	0.962700	0.581300
H11991	H1199	0.338000	0.025700	0.590100
H12001	H1200	0.277100	0.983700	0.576400
H12011	H1201	0.338100	0.286200	0.614900
H12021	H1202	0.279000	0.248600	0.612000
H12031	H1203	0.301300	0.263900	0.583200
H12041	H1204	0.200600	0.057900	0.568500
H12051	H1205	0.179800	0.060000	0.541200
H12061	H1206	0.154500	0.042100	0.568800
H12071	H1207	0.792400	0.500600	0.685800
H12081	H1208	0.797000	0.516200	0.655400
H12091	H1209	0.831300	0.559800	0.686900
H12101	H1210	0.999900	0.613600	0.669300
H12111	H1211	0.016200	0.660500	0.671100
H12121	H1212	0.982300	0.616100	0.640000
H12131	H1213	0.043700	0.595500	0.699000
H12141	H1214	0.065200	0.581400	0.701600
H12151	H1215	0.096500	0.633000	0.724700
H12161	H1216	0.945900	0.474400	0.797300
H12171	H1217	0.008800	0.525100	0.813300
H12181	H1218	0.977900	0.472800	0.791500
H12191	H1219	0.931400	0.618900	0.578900
H12201	H1220	0.883300	0.564900	0.588600
H12211	H1221	0.943300	0.604600	0.601900
H12221	H1222	0.942000	0.703900	0.694700
H12231	H1223	0.958000	0.687000	0.708000
H12241	H1224	0.896200	0.643100	0.695300
H12251	H1225	0.064900	0.174400	0.357900
H12261	H1226	0.080600	0.163300	0.380900
H12271	H1227	0.019200	0.120700	0.368300
H12281	H1228	0.078000	0.258200	0.478400
H12291	H1229	0.031500	0.196800	0.477500
H12301	H1230	0.093000	0.239800	0.490200
H12311	H1231	0.122200	0.353300	0.490700
H12321	H1232	0.178200	0.410400	0.513800
H12331	H1233	0.130300	0.392500	0.505200
H12341	H1234	0.237100	0.503500	0.405000
H12351	H1235	0.232400	0.527300	0.426500
H12361	H1236	0.281800	0.547500	0.436300
H12371	H1237	0.975500	0.155200	0.195100
H12381	H1238	0.966500	0.134600	0.223900
H12391	H1239	0.982000	0.127000	0.198600
H12401	H1240	0.739500	0.930700	0.133600
H12411	H1241	0.756800	0.978400	0.138000
H12421	H1242	0.773800	0.971500	0.113500
H12431	H1243	0.331600	0.820700	0.946900
H12441	H1244	0.314100	0.797100	0.911800
H12451	H1245	0.306600	0.768600	0.934600
H12461	H1246	0.536400	0.924800	0.939600
H12471	H1247	0.490100	0.862500	0.925600
H12481	H1248	0.504100	0.897000	0.905100
H12491	H1249	0.639600	0.033300	0.985300
H12501	H1250	0.703400	0.089600	0.998400
H12511	H1251	0.671400	0.038300	0.008500
H12521	H1252	0.651500	0.114700	0.104800
H12531	H1253	0.685800	0.116400	0.117400
H12541	H1254	0.713900	0.165600	0.106500
H12551	H1255	0.547900	0.939300	0.511400
H12561	H1256	0.542100	0.924000	0.542100
H12571	H1257	0.505300	0.878900	0.510800
H12581	H1258	0.355400	0.853100	0.526100
H12591	H1259	0.330500	0.800700	0.523800
H12601	H1260	0.366500	0.845100	0.555200
N4211	N421	0.935740	0.401230	0.954970
N4221	N422	0.958180	0.396760	0.971740
N4231	N423	0.111930	0.536230	0.032960
N4241	N424	0.142190	0.586390	0.036180
N4251	N425	0.084460	0.600340	0.975200
N4261	N426	0.031060	0.551910	0.957370
N4271	N427	0.335970	0.381400	0.715970
N4281	N428	0.294300	0.356300	0.726800
N4291	N429	0.209800	0.357820	0.693420
N4301	N430	0.222900	0.384200	0.671700
N4311	N431	0.357170	0.469380	0.642550
N4321	N432	0.388200	0.471900	0.655900
N4331	N433	0.988360	0.205160	0.632120
N4341	N434	0.994500	0.225700	0.660400
N4351	N435	0.866010	0.157460	0.685270
N4361	N436	0.814050	0.113580	0.666230
N4371	N437	0.787160	0.045080	0.581440
N4381	N438	0.832300	0.071820	0.574520
N4391	N439	0.781300	0.140790	0.780490
N4401	N440	0.752100	0.090840	0.776540
N4411	N441	0.682160	0.003120	0.839480
N4421	N442	0.692880	0.025420	0.867700
N4431	N443	0.791060	0.181900	0.887760
N4441	N444	0.812300	0.209600	0.866900
N4451	N445	0.607240	0.847130	0.899970
N4461	N446	0.649230	0.869190	0.890020
N4471	N447	0.707390	0.840220	0.925410
N4481	N448	0.689220	0.814850	0.948070
N4491	N449	0.559360	0.747050	0.973410
N4501	N450	0.537620	0.751300	0.957920
N4511	N451	0.558770	0.713950	0.404120
N4521	N452	0.609820	0.757080	0.426700
N4531	N453	0.688160	0.899790	0.463150
N4541	N454	0.667520	0.909260	0.455380
N4551	N455	0.533190	0.796270	0.380860
N4561	N456	0.506630	0.748500	0.368530
N4571	N457	0.986510	0.694890	0.876000
N4581	N458	0.998590	0.716840	0.851630
N4591	N459	0.798880	0.612570	0.838450
N4601	N460	0.820020	0.644190	0.867610
N4611	N461	0.100890	0.700690	0.892380
N4621	N462	0.060830	0.680910	0.902540
N4631	N463	0.337760	0.178940	0.810500
N4641	N464	0.367830	0.230000	0.815430
N4651	N465	0.304870	0.248100	0.768770
N4661	N466	0.254600	0.203600	0.746200
N4671	N467	0.556200	0.329100	0.883900
N4681	N468	0.548400	0.304200	0.856800
N4691	N469	0.330870	0.680740	0.102210
N4701	N470	0.319670	0.653680	0.074550
N4711	N471	0.444240	0.709200	0.055440
N4721	N472	0.495900	0.752490	0.074990
N4731	N473	0.334730	0.682000	0.307130
N4741	N474	0.310730	0.649000	0.326930
N4751	N475	0.428300	0.469600	0.541500
N4761	N476	0.454100	0.518000	0.543700
N4771	N477	0.524700	0.593400	0.475700
N4781	N478	0.514000	0.566600	0.449000
N4791	N479	0.917900	0.975500	0.991000
N4801	N480	0.894400	0.927500	0.988500
C10511	C1051	0.860500	0.346900	0.909600
C10521	C1052	0.893700	0.354200	0.931100
C10531	C1053	0.889370	0.321200	0.933770
C10541	C1054	0.929300	0.347810	0.957910
C10551	C1055	0.944400	0.331700	0.971100
C10561	C1056	0.128500	0.497900	0.045000
C10571	C1057	0.146300	0.543400	0.044500
C10581	C1058	0.200000	0.600500	0.057100
C10591	C1059	0.194700	0.625000	0.051100
C10601	C1060	0.238400	0.685000	0.057600
C10611	C1061	0.164700	0.698800	0.982500
C10621	C1062	0.107400	0.642400	0.965600
C10631	C1063	0.070800	0.621900	0.941300
C10641	C1064	0.022500	0.565000	0.936100
C10651	C1065	0.970700	0.522300	0.911600
C10661	C1066	0.383600	0.374200	0.710600
C10671	C1067	0.342000	0.358000	0.720000
C10681	C1068	0.303000	0.315800	0.734400
C10691	C1069	0.274800	0.317300	0.737900
C10701	C1070	0.227400	0.282600	0.751800
C10711	C1071	0.134300	0.286000	0.714500
C10721	C1072	0.156500	0.317600	0.691900
C10731	C1073	0.133300	0.316100	0.669000
C10741	C1074	0.176900	0.358800	0.657300
C10751	C1075	0.175200	0.376500	0.631100
C10761	C1076	0.335300	0.475000	0.594900
C10771	C1077	0.364600	0.475800	0.614800
C10781	C1078	0.397700	0.482000	0.609100
C10791	C1079	0.410800	0.479000	0.636200
C10801	C1080	0.449000	0.484500	0.645300
C10811	C1081	0.044500	0.223800	0.604900
C10821	C1082	0.038100	0.236800	0.632100
C10831	C1083	0.075900	0.276500	0.659800
C10841	C1084	0.047200	0.267900	0.676900
C10851	C1085	0.065300	0.297500	0.709000
C10861	C1086	0.913500	0.213500	0.738800
C10871	C1087	0.863700	0.168300	0.712200
C10881	C1088	0.810600	0.130800	0.711800
C10891	C1089	0.780700	0.098100	0.681600
C10901	C1090	0.721000	0.050000	0.666600
C10911	C1091	0.687800	0.965600	0.562000
C10921	C1092	0.742900	0.003500	0.558000
C10931	C1093	0.758800	0.001800	0.533600
C10941	C1094	0.815200	0.046330	0.544930
C10951	C1095	0.855600	0.066900	0.529900
C10961	C1096	0.840800	0.216600	0.756600
C10971	C1097	0.805400	0.161800	0.757400
C10981	C1098	0.790800	0.124700	0.737500
C10991	C1099	0.757300	0.080900	0.750800
C11001	C1100	0.729300	0.028000	0.738900
C11011	C1101	0.651100	0.928800	0.811100
C11021	C1102	0.665000	0.960600	0.840200
C11031	C1103	0.664800	0.956500	0.869500
C11041	C1104	0.680900	0.997000	0.885900
C11051	C1105	0.687800	0.010600	0.919800
C11061	C1106	0.798400	0.198000	0.942000
C11071	C1107	0.814800	0.217800	0.915000
C11081	C1108	0.852500	0.270200	0.910100
C11091	C1109	0.848940	0.262400	0.879740
C11101	C1110	0.879600	0.302500	0.861300
C11111	C1111	0.564200	0.860900	0.900100
C11121	C1112	0.606100	0.874600	0.892900
C11131	C1113	0.651200	0.917200	0.880000
C11141	C1114	0.674800	0.910700	0.878900
C11151	C1115	0.723400	0.943000	0.868600
C11161	C1116	0.789200	0.907500	0.907300
C11171	C1117	0.757800	0.873600	0.928600
C11181	C1118	0.773000	0.868700	0.953100
C11191	C1119	0.729500	0.832300	0.964000
C11201	C1120	0.719900	0.808900	0.990200
C11211	C1121	0.568000	0.733500	0.021900
C11221	C1122	0.548580	0.739320	0.000300
C11231	C1123	0.519200	0.739300	0.003300
C11241	C1124	0.512000	0.746100	0.974700
C11251	C1125	0.485700	0.751900	0.966000
C11261	C1126	0.475300	0.612800	0.384500
C11271	C1127	0.531500	0.666600	0.405900
C11281	C1128	0.563300	0.678300	0.428800
C11291	C1129	0.610900	0.733900	0.441400
C11301	C1130	0.661100	0.770700	0.466400
C11311	C1131	0.749200	0.927600	0.505400
C11321	C1132	0.722400	0.931300	0.490900
C11331	C1133	0.724200	0.961600	0.504000
C11341	C1134	0.688800	0.946490	0.480690
C11351	C1135	0.672100	0.963800	0.480300
C11361	C1136	0.514100	0.833600	0.378700
C11371	C1137	0.498700	0.789300	0.370000
C11381	C1138	0.448100	0.735000	0.350500
C11391	C1139	0.456500	0.711700	0.351200
C11401	C1140	0.418400	0.655300	0.335300
C11411	C1141	0.923000	0.647800	0.908400
C11421	C1142	0.944500	0.674610	0.882510
C11431	C1143	0.927000	0.681400	0.862400
C11441	C1144	0.963000	0.709500	0.844300
C11451	C1145	0.966400	0.729800	0.818000
C11461	C1146	0.823400	0.593100	0.806100
C11471	C1147	0.833870	0.621160	0.833230
C11481	C1148	0.878800	0.660200	0.858600
C11491	C1149	0.868200	0.672800	0.879000
C11501	C1150	0.901100	0.711400	0.910700
C11511	C1151	0.153900	0.699500	0.898200
C11521	C1152	0.111500	0.684200	0.905300
C11531	C1153	0.075620	0.650600	0.923620
C11541	C1154	0.046230	0.651640	0.921070
C11551	C1155	0.002900	0.624400	0.937100
C11561	C1156	0.353500	0.140800	0.824100
C11571	C1157	0.371700	0.187000	0.824500
C11581	C1158	0.423800	0.242500	0.836900
C11591	C1159	0.419700	0.268900	0.831000
C11601	C1160	0.460800	0.326600	0.838200
C11611	C1161	0.383100	0.348200	0.787100
C11621	C1162	0.328400	0.293100	0.766300
C11631	C1163	0.294650	0.279700	0.743750
C11641	C1164	0.249800	0.223600	0.731200
C11651	C1165	0.200700	0.185100	0.705000
C11661	C1166	0.507200	0.325700	0.904700
C11671	C1167	0.511000	0.308500	0.879500
C11681	C1168	0.474600	0.270900	0.851300
C11691	C1169	0.500300	0.270400	0.837900
C11701	C1170	0.482500	0.239400	0.807300
C11711	C1171	0.284300	0.681700	0.125400
C11721	C1172	0.286800	0.662100	0.098700
C11731	C1173	0.249700	0.625600	0.069700
C11741	C1174	0.273600	0.623900	0.055300
C11751	C1175	0.253900	0.592400	0.024700
C11761	C1176	0.393100	0.650200	0.002300
C11771	C1177	0.444200	0.696100	0.028100
C11781	C1178	0.498100	0.734700	0.028200
C11791	C1179	0.529800	0.769200	0.058600
C11801	C1180	0.590700	0.817700	0.074200
C11811	C1181	0.424900	0.759500	0.297600
C11821	C1182	0.387340	0.717190	0.313530
C11831	C1183	0.397600	0.706600	0.336000
C11841	C1184	0.347800	0.662700	0.343700
C11851	C1185	0.334700	0.634400	0.366700
C11861	C1186	0.371400	0.397800	0.568400
C11871	C1187	0.405500	0.452900	0.566200
C11881	C1188	0.415800	0.487800	0.583000
C11891	C1189	0.445000	0.527500	0.567100
C11901	C1190	0.466600	0.576300	0.574900
C11911	C1191	0.554000	0.667100	0.497100
C11921	C1192	0.543100	0.635200	0.471900
C11931	C1193	0.546000	0.638500	0.442300
C11941	C1194	0.528400	0.595600	0.428800
C11951	C1195	0.523600	0.577900	0.397100
C11961	C1196	0.889800	0.001100	0.978500
C11971	C1197	0.876500	0.958500	0.978000
C11981	C1198	0.826700	0.900800	0.965700
C11991	C1199	0.842300	0.886100	0.973200
C12001	C1200	0.805600	0.827950	0.966350
Ag2111	Ag211	0.982390	0.477070	0.959720
Ag2121	Ag212	0.033040	0.466250	0.004600
Ag2131	Ag213	0.111200	0.593560	0.008520
Ag2141	Ag214	0.365450	0.432220	0.689330
Ag2151	Ag215	0.258930	0.365650	0.712780
Ag2161	Ag216	0.294270	0.433590	0.659680
Ag2171	Ag217	0.910630	0.139960	0.602910
Ag2181	Ag218	0.929870	0.192560	0.671510
Ag2191	Ag219	0.799550	0.079350	0.623660
Ag2201	Ag220	0.794430	0.174220	0.822910
Ag2211	Ag221	0.713490	0.046720	0.807310
Ag2221	Ag222	0.737580	0.101760	0.877640
Ag2231	Ag223	0.568410	0.793280	0.925150
Ag2241	Ag224	0.673370	0.848950	0.905400
Ag2251	Ag225	0.619670	0.774210	0.957800
Ag2261	Ag226	0.535760	0.732960	0.384640
Ag2271	Ag227	0.650260	0.829990	0.440630
Ag2281	Ag228	0.603280	0.856300	0.416640
Ag2291	Ag229	0.026050	0.690410	0.889180
Ag2301	Ag230	0.055630	0.745240	0.833510
Ag2311	Ag231	0.127220	0.742980	0.859940
Ag2321	Ag232	0.262930	0.113290	0.779020
Ag2331	Ag233	0.331980	0.235670	0.793270
Ag2341	Ag234	0.212850	0.129420	0.737010
Ag2351	Ag235	0.405130	0.741090	0.133460
Ag2361	Ag236	0.381780	0.679320	0.067280
Ag2371	Ag237	0.511850	0.791690	0.115180
Ag2381	Ag238	0.421800	0.434950	0.505570
Ag2391	Ag239	0.492290	0.556200	0.510690
Ag2401	Ag240	0.994830	0.048940	0.019790
H12611	H1261	0.876000	0.379200	0.914800
H12621	H1262	0.860700	0.340600	0.889100
H12631	H1263	0.823600	0.316200	0.911000
H12641	H1264	0.920200	0.296400	0.958800
H12651	H1265	0.981500	0.358300	0.971400
H12661	H1266	0.941000	0.330100	0.991500
H12671	H1267	0.090000	0.463700	0.035100
H12681	H1268	0.148200	0.501500	0.034500
H12691	H1269	0.135700	0.499300	0.065800
H12701	H1270	0.222100	0.689500	0.051000
H12711	H1271	0.256100	0.702200	0.079100
H12721	H1272	0.264800	0.701600	0.046800
H12731	H1273	0.176200	0.724500	0.973500
H12741	H1274	0.166900	0.706300	0.003400
H12751	H1275	0.188200	0.702100	0.981500
H12761	H1276	0.945300	0.487100	0.914800
H12771	H1277	0.955700	0.529000	0.911900
H12781	H1278	0.977500	0.523000	0.892300
H12791	H1279	0.404800	0.403500	0.701300
H12801	H1280	0.407400	0.386100	0.728100
H12811	H1281	0.365600	0.343400	0.696200
H12821	H1282	0.216400	0.293500	0.750700
H12831	H1283	0.197200	0.244700	0.740900
H12841	H1284	0.238800	0.287900	0.772900
H12851	H1285	0.162100	0.297900	0.727200
H12861	H1286	0.123000	0.291800	0.727000
H12871	H1287	0.103500	0.247800	0.704100
H12881	H1288	0.210900	0.407100	0.628000
H12891	H1289	0.149400	0.346600	0.612800
H12901	H1290	0.164300	0.386700	0.636200
H12911	H1291	0.344000	0.480400	0.575800
H12921	H1292	0.296500	0.440500	0.591400
H12931	H1293	0.347200	0.503900	0.605100
H12941	H1294	0.449800	0.480800	0.665600
H12951	H1295	0.435500	0.456500	0.631200
H12961	H1296	0.485300	0.519900	0.644800
H12971	H1297	0.010000	0.193300	0.589500
H12981	H1298	0.056500	0.214700	0.610600
H12991	H1299	0.071000	0.255000	0.597000
H13001	H1300	0.034500	0.280700	0.714200
H13011	H1301	0.092700	0.335000	0.710300
H13021	H1302	0.080200	0.295500	0.722900
H13031	H1303	0.944900	0.233500	0.732400
H13041	H1304	0.909300	0.198300	0.754400
H13051	H1305	0.918200	0.237600	0.746600
H13061	H1306	0.713700	0.037100	0.645400
H13071	H1307	0.709700	0.060400	0.668500
H13081	H1308	0.701400	0.021400	0.676200
H13091	H1309	0.692300	0.979900	0.581600
H13101	H1310	0.666200	0.930100	0.560500
H13111	H1311	0.669400	0.962400	0.546200
H13121	H1312	0.891400	0.098300	0.543900
H13131	H1313	0.855100	0.076700	0.512400
H13141	H1314	0.846000	0.038700	0.523500
H13151	H1315	0.842300	0.231700	0.773800
H13161	H1316	0.826000	0.213400	0.738000
H13171	H1317	0.877100	0.240200	0.757500
H13181	H1318	0.708800	0.005300	0.752300
H13191	H1319	0.756400	0.036200	0.738000
H13201	H1320	0.705100	0.009100	0.718800
H13211	H1321	0.640300	0.900800	0.815300
H13221	H1322	0.682600	0.953100	0.803500
H13231	H1323	0.621600	0.912100	0.796100
H13241	H1324	0.699700	0.040700	0.925000
H13251	H1325	0.714600	0.020500	0.931500
H13261	H1326	0.653400	0.979300	0.924100
H13271	H1327	0.772400	0.160300	0.936900
H13281	H1328	0.782000	0.201400	0.949200
H13291	H1329	0.829900	0.219300	0.957600
H13301	H1330	0.903400	0.337400	0.874000
H13311	H1331	0.854200	0.289800	0.844800
H13321	H1332	0.901000	0.306000	0.853400
H13331	H1333	0.539700	0.830200	0.908500
H13341	H1334	0.582800	0.891900	0.914700
H13351	H1335	0.543800	0.852000	0.881800
H13361	H1336	0.730200	0.928200	0.870600
H13371	H1337	0.717000	0.941400	0.847600
H13381	H1338	0.754600	0.980300	0.880700
H13391	H1339	0.767800	0.902200	0.893000
H13401	H1340	0.822700	0.945500	0.918600
H13411	H1341	0.797300	0.896800	0.896500
H13421	H1342	0.751600	0.824400	0.999200
H13431	H1343	0.713000	0.817400	0.005200
H13441	H1344	0.688900	0.769900	0.982600
H13451	H1345	0.587500	0.735100	0.013200
H13461	H1346	0.592000	0.762700	0.040500
H13471	H1347	0.537300	0.699000	0.026300
H13481	H1348	0.486600	0.755900	0.945700
H13491	H1349	0.448300	0.720000	0.966700
H13501	H1350	0.504800	0.783700	0.979900
H13511	H1351	0.464900	0.619500	0.371000
H13521	H1352	0.476000	0.595100	0.372700
H13531	H1353	0.449300	0.589700	0.396000
H13541	H1354	0.686400	0.807900	0.469100
H13551	H1355	0.651500	0.760900	0.485000
H13561	H1356	0.677900	0.766900	0.461000
H13571	H1357	0.740200	0.903200	0.491000
H13581	H1358	0.788200	0.963300	0.511700
H13591	H1359	0.736700	0.914200	0.522900
H13601	H1360	0.646700	0.945600	0.460900
H13611	H1361	0.655100	0.954400	0.496300
H13621	H1362	0.703900	0.002700	0.483400
H13631	H1363	0.550700	0.865700	0.392000
H13641	H1364	0.512400	0.841900	0.360700
H13651	H1365	0.489300	0.821900	0.389000
H13661	H1366	0.436000	0.651800	0.339800
H13671	H1367	0.385900	0.629200	0.342100
H13681	H1368	0.408600	0.648700	0.313700
H13691	H1369	0.944300	0.649900	0.918000
H13701	H1370	0.885400	0.610200	0.900400
H13711	H1371	0.925500	0.666400	0.923100
H13721	H1372	0.995900	0.747300	0.810200
H13731	H1373	0.972800	0.755400	0.825000
H13741	H1374	0.932600	0.699300	0.802100
H13751	H1375	0.788800	0.568800	0.792400
H13761	H1376	0.822300	0.572400	0.811100
H13771	H1377	0.851900	0.619300	0.796400
H13781	H1378	0.881400	0.709900	0.918700
H13791	H1379	0.935600	0.747900	0.909900
H13801	H1380	0.907300	0.700700	0.923600
H13811	H1381	0.171300	0.723200	0.885100
H13821	H1382	0.136600	0.667000	0.888000
H13831	H1383	0.180700	0.718100	0.916800
H13841	H1384	0.989400	0.632100	0.931500
H13851	H1385	0.018800	0.638600	0.958800
H13861	H1386	0.973300	0.585700	0.931200
H13871	H1387	0.314800	0.106600	0.814200
H13881	H1388	0.360800	0.141600	0.844600
H13891	H1389	0.372900	0.144400	0.813100
H13901	H1390	0.444300	0.330600	0.830700
H13911	H1391	0.489400	0.345100	0.828900
H13921	H1392	0.476100	0.342300	0.860000
H13931	H1393	0.396500	0.344700	0.801000
H13941	H1394	0.379800	0.363600	0.798400
H13951	H1395	0.408300	0.371800	0.775300
H13961	H1396	0.177100	0.148600	0.702700
H13971	H1397	0.211800	0.195500	0.686700
H13981	H1398	0.181300	0.186400	0.708500
H13991	H1399	0.540000	0.352500	0.921100
H14001	H1400	0.476300	0.294700	0.911400
H14011	H1401	0.502700	0.341400	0.898100
H14021	H1402	0.509200	0.247300	0.805300
H14031	H1403	0.479000	0.250000	0.792000
H14041	H1404	0.447800	0.200900	0.804700
H14051	H1405	0.316500	0.707000	0.142100
H14061	H1406	0.282400	0.699700	0.119100
H14071	H1407	0.252400	0.650900	0.131700
H14081	H1408	0.279800	0.599600	0.021600
H14091	H1409	0.219300	0.554000	0.022500
H14101	H1410	0.249600	0.602800	0.009800
H14111	H1411	0.362600	0.631500	0.009300
H14121	H1412	0.396600	0.664400	0.986200
H14131	H1413	0.387300	0.625100	0.994800
H14141	H1414	0.598500	0.832100	0.095000
H14151	H1415	0.600800	0.805900	0.073500
H14161	H1416	0.611200	0.845500	0.063700
H14171	H1417	0.460100	0.780400	0.304900
H14181	H1418	0.410700	0.742600	0.276100
H14191	H1419	0.428400	0.783400	0.301400
H14201	H1420	0.297100	0.605900	0.366400
H14211	H1421	0.340400	0.618800	0.362000
H14221	H1422	0.358000	0.660300	0.386500
H14231	H1423	0.373800	0.384700	0.553100
H14241	H1424	0.385300	0.402300	0.588200
H14251	H1425	0.334000	0.372000	0.565400
H14261	H1426	0.485200	0.596800	0.560400
H14271	H1427	0.436900	0.564500	0.574400
H14281	H1428	0.491900	0.599000	0.594900
H14291	H1429	0.548000	0.654300	0.514700
H14301	H1430	0.591200	0.705000	0.501600
H14311	H1431	0.529800	0.662900	0.491500
H14321	H1432	0.509900	0.546700	0.395200
H14331	H1433	0.499000	0.568400	0.382600
H14341	H1434	0.559100	0.607400	0.393500
H14351	H1435	0.927900	0.036500	0.988600
H14361	H1436	0.881900	0.000000	0.957900
H14371	H1437	0.868100	0.994500	0.989200
H14381	H1438	0.827000	0.829300	0.973900
H14391	H1439	0.776900	0.806700	0.976200
H14401	H1440	0.789900	0.811300	0.944800
