data_YEZFIU_clean_PM
_symmetry_space_group_name_H-M	'P1'
_cell_length_a	13.047800
_cell_length_b	15.069300
_cell_length_c	15.069300
_cell_angle_alpha	67.972600
_cell_angle_beta	73.224800
_cell_angle_gamma	106.775000
_symmetry_Int_Tables_number 1

loop_
_symmetry_equiv_pos_as_xyz
'x,y,z'

loop_
_atom_site_label
_atom_site_type_symbol
_atom_site_fract_x
_atom_site_fract_y
_atom_site_fract_z
Zn11	Zn1	0.969870	0.714490	0.808810
Zn21	Zn2	0.778680	0.808810	0.476700
Zn31	Zn3	0.255380	0.476700	0.714490
Zn41	Zn4	0.030130	0.285510	0.191190
Zn51	Zn5	0.221320	0.191190	0.523300
Zn61	Zn6	0.744620	0.523300	0.285510
H11	H1	0.265600	0.752900	0.725300
H21	H2	0.300400	0.658200	0.757200
H31	H3	0.157300	0.581600	0.939500
H41	H4	0.263100	0.692700	0.897600
H51	H5	0.154800	0.742000	0.007200
H61	H6	0.056200	0.623100	0.065300
H71	H7	0.971400	0.733500	0.098600
H81	H8	0.014800	0.803700	0.975300
H91	H9	0.990900	0.725300	0.521800
H101	H10	0.057600	0.757200	0.584600
H111	H11	0.096800	0.939500	0.478900
H121	H12	0.160700	0.897600	0.409700
H131	H13	0.162000	0.007200	0.250800
H141	H14	0.121500	0.065300	0.311600
H151	H15	0.070000	0.098600	0.167900
H161	H16	0.990100	0.975300	0.221000
H171	H17	0.512700	0.521800	0.752900
H181	H18	0.642200	0.584600	0.658200
H191	H19	0.575700	0.478900	0.581600
H201	H20	0.570400	0.409700	0.692700
H211	H21	0.412800	0.250800	0.742000
H221	H22	0.433100	0.311600	0.623100
H231	H23	0.237900	0.167900	0.733500
H241	H24	0.211100	0.221000	0.803700
H251	H25	0.734400	0.247100	0.274700
H261	H26	0.699600	0.341800	0.242800
H271	H27	0.842700	0.418400	0.060500
H281	H28	0.736900	0.307300	0.102400
H291	H29	0.845200	0.258000	0.992800
H301	H30	0.943800	0.376900	0.934700
H311	H31	0.028600	0.266500	0.901400
H321	H32	0.985200	0.196300	0.024700
H331	H33	0.009100	0.274700	0.478200
H341	H34	0.942400	0.242800	0.415400
H351	H35	0.903200	0.060500	0.521100
H361	H36	0.839300	0.102400	0.590300
H371	H37	0.838000	0.992800	0.749200
H381	H38	0.878500	0.934700	0.688400
H391	H39	0.930000	0.901400	0.832100
H401	H40	0.009900	0.024700	0.779000
H411	H41	0.487300	0.478200	0.247100
H421	H42	0.357800	0.415400	0.341800
H431	H43	0.424300	0.521100	0.418400
H441	H44	0.429600	0.590300	0.307300
H451	H45	0.587200	0.749200	0.258000
H461	H46	0.566900	0.688400	0.376900
H471	H47	0.762100	0.832100	0.266500
H481	H48	0.788900	0.779000	0.196300
C11	C1	0.136400	0.613800	0.759000
C21	C2	0.235300	0.677300	0.774500
C31	C3	0.194700	0.657800	0.888800
C41	C4	0.083800	0.695500	0.009300
C51	C5	0.987100	0.731800	0.032400
C61	C6	0.874000	0.658600	0.042000
C71	C7	0.895400	0.759000	0.627200
C81	C8	0.009800	0.774500	0.548200
C91	C9	0.083500	0.888800	0.453400
C101	C10	0.093100	0.009300	0.295200
C111	C11	0.019500	0.032400	0.235800
C121	C12	0.916000	0.042000	0.299400
C131	C13	0.522600	0.627200	0.613800
C141	C14	0.558000	0.548200	0.677300
C151	C15	0.536900	0.453400	0.657800
C161	C16	0.388300	0.295200	0.695500
C171	C17	0.255300	0.235800	0.731800
C181	C18	0.215400	0.299400	0.658600
C191	C19	0.863600	0.386200	0.241000
C201	C20	0.764700	0.322700	0.225500
C211	C21	0.805300	0.342200	0.111200
C221	C22	0.916200	0.304500	0.990700
C231	C23	0.012900	0.268200	0.967600
C241	C24	0.126000	0.341400	0.958000
C251	C25	0.104600	0.241000	0.372800
C261	C26	0.990200	0.225500	0.451800
C271	C27	0.916500	0.111200	0.546600
C281	C28	0.906900	0.990700	0.704800
C291	C29	0.980500	0.967600	0.764200
C301	C30	0.084000	0.958000	0.700600
C311	C31	0.477400	0.372800	0.386200
C321	C32	0.442000	0.451800	0.322700
C331	C33	0.463100	0.546600	0.342200
C341	C34	0.611700	0.704800	0.304500
C351	C35	0.744700	0.764200	0.268200
C361	C36	0.784600	0.700600	0.341400
N11	N1	0.033600	0.621200	0.773300
N21	N2	0.970600	0.549900	0.750600
N31	N3	0.031500	0.502300	0.724900
N41	N4	0.137720	0.541440	0.729180
N51	N5	0.858800	0.653100	0.960600
N61	N6	0.746100	0.574400	0.002800
N71	N7	0.697000	0.535700	0.104800
N81	N8	0.775750	0.588850	0.131400
N91	N9	0.806900	0.773300	0.605500
N101	N10	0.721200	0.750600	0.699500
N111	N11	0.756400	0.724900	0.772800
N121	N12	0.866900	0.729180	0.729380
N131	N13	0.819400	0.960600	0.386300
N141	N14	0.748900	0.002800	0.422800
N151	N15	0.801800	0.104800	0.359500
N161	N16	0.907150	0.131400	0.279750
N171	N17	0.412400	0.605500	0.621200
N181	N18	0.420700	0.699500	0.549900
N191	N19	0.529200	0.772800	0.502300
N201	N20	0.596280	0.729380	0.541440
N211	N21	0.205700	0.386300	0.653100
N221	N22	0.171700	0.422800	0.574400
N231	N23	0.161300	0.359500	0.535700
N241	N24	0.186900	0.279750	0.588850
N251	N25	0.966400	0.378800	0.226700
N261	N26	0.029400	0.450100	0.249400
N271	N27	0.968500	0.497700	0.275100
N281	N28	0.862280	0.458560	0.270820
N291	N29	0.141200	0.346900	0.039400
N301	N30	0.253900	0.425600	0.997200
N311	N31	0.303000	0.464300	0.895200
N321	N32	0.224250	0.411150	0.868600
N331	N33	0.193100	0.226700	0.394500
N341	N34	0.278800	0.249400	0.300500
N351	N35	0.243600	0.275100	0.227200
N361	N36	0.133100	0.270820	0.270620
N371	N37	0.180600	0.039400	0.613700
N381	N38	0.251100	0.997200	0.577200
N391	N39	0.198200	0.895200	0.640500
N401	N40	0.092850	0.868600	0.720250
N411	N41	0.587600	0.394500	0.378800
N421	N42	0.579300	0.300500	0.450100
N431	N43	0.470800	0.227200	0.497700
N441	N44	0.403720	0.270620	0.458560
N451	N45	0.794300	0.613700	0.346900
N461	N46	0.828300	0.577200	0.425600
N471	N47	0.838700	0.640500	0.464300
N481	N48	0.813100	0.720250	0.411150
O11	O1	0.111890	0.699710	0.908540
O21	O2	0.020430	0.908540	0.391750
O31	O3	0.412180	0.391750	0.699710
O41	O4	0.888110	0.300290	0.091460
O51	O5	0.979570	0.091460	0.608250
O61	O6	0.587820	0.608250	0.300290
