data_YEZKEV_clean_PM
_symmetry_space_group_name_H-M	'P1'
_cell_length_a	13.661800
_cell_length_b	13.661800
_cell_length_c	13.661800
_cell_angle_alpha	103.244000
_cell_angle_beta	103.244000
_cell_angle_gamma	103.244000
_symmetry_Int_Tables_number 1

loop_
_symmetry_equiv_pos_as_xyz
'x,y,z'

loop_
_atom_site_label
_atom_site_type_symbol
_atom_site_fract_x
_atom_site_fract_y
_atom_site_fract_z
Cr11	Cr1	0.500000	0.286980	0.713020
Cr21	Cr2	0.713020	0.500000	0.286980
Cr31	Cr3	0.286980	0.713020	0.500000
Co11	Co1	0.618090	0.381910	0.000000
Co21	Co2	0.000000	0.618090	0.381910
Co31	Co3	0.381910	0.000000	0.618090
H11	H1	0.079400	0.349800	0.887200
H21	H2	0.236900	0.369400	0.873300
H31	H3	0.314400	0.333000	0.160700
H41	H4	0.904400	0.363000	0.815300
H51	H5	0.745300	0.377300	0.835600
H61	H6	0.483000	0.353500	0.153400
H71	H7	0.138000	0.350600	0.092400
H81	H8	0.404300	0.377700	0.870100
H91	H9	0.990300	0.359600	0.118600
H101	H10	0.828800	0.382900	0.129900
H111	H11	0.887200	0.079400	0.349800
H121	H12	0.873300	0.236900	0.369400
H131	H13	0.160700	0.314400	0.333000
H141	H14	0.815300	0.904400	0.363000
H151	H15	0.835600	0.745300	0.377300
H161	H16	0.153400	0.483000	0.353500
H171	H17	0.092400	0.138000	0.350600
H181	H18	0.870100	0.404300	0.377700
H191	H19	0.118600	0.990300	0.359600
H201	H20	0.129900	0.828800	0.382900
H211	H21	0.349800	0.887200	0.079400
H221	H22	0.369400	0.873300	0.236900
H231	H23	0.333000	0.160700	0.314400
H241	H24	0.363000	0.815300	0.904400
H251	H25	0.377300	0.835600	0.745300
H261	H26	0.353500	0.153400	0.483000
H271	H27	0.350600	0.092400	0.138000
H281	H28	0.377700	0.870100	0.404300
H291	H29	0.359600	0.118600	0.990300
H301	H30	0.382900	0.129900	0.828800
H311	H31	0.650200	0.920600	0.112800
H321	H32	0.630600	0.763100	0.126700
H331	H33	0.667000	0.685600	0.839300
H341	H34	0.637000	0.095600	0.184700
H351	H35	0.622700	0.254700	0.164400
H361	H36	0.646500	0.517000	0.846600
H371	H37	0.649400	0.862000	0.907600
H381	H38	0.622300	0.595700	0.129900
H391	H39	0.640400	0.009700	0.881400
H401	H40	0.617100	0.171200	0.870100
H411	H41	0.920600	0.112800	0.650200
H421	H42	0.763100	0.126700	0.630600
H431	H43	0.685600	0.839300	0.667000
H441	H44	0.095600	0.184700	0.637000
H451	H45	0.254700	0.164400	0.622700
H461	H46	0.517000	0.846600	0.646500
H471	H47	0.862000	0.907600	0.649400
H481	H48	0.595700	0.129900	0.622300
H491	H49	0.009700	0.881400	0.640400
H501	H50	0.171200	0.870100	0.617100
H511	H51	0.112800	0.650200	0.920600
H521	H52	0.126700	0.630600	0.763100
H531	H53	0.839300	0.667000	0.685600
H541	H54	0.184700	0.637000	0.095600
H551	H55	0.164400	0.622700	0.254700
H561	H56	0.846600	0.646500	0.517000
H571	H57	0.907600	0.649400	0.862000
H581	H58	0.129900	0.622300	0.595700
H591	H59	0.881400	0.640400	0.009700
H601	H60	0.870100	0.617100	0.171200
C11	C1	0.070000	0.354300	0.953900
C21	C2	0.285600	0.365900	0.932200
C31	C3	0.331700	0.346100	0.101200
C41	C4	0.255200	0.355400	0.020200
C51	C5	0.891600	0.366400	0.880500
C61	C6	0.796600	0.375700	0.893900
C71	C7	0.431900	0.355600	0.095300
C81	C8	0.968400	0.361800	0.964900
C91	C9	0.149900	0.353200	0.027800
C101	C10	0.386200	0.371100	0.931100
C111	C11	0.942500	0.365400	0.060100
C121	C12	0.844700	0.377800	0.066000
C131	C13	0.953900	0.070000	0.354300
C141	C14	0.932200	0.285600	0.365900
C151	C15	0.101200	0.331700	0.346100
C161	C16	0.020200	0.255200	0.355400
C171	C17	0.880500	0.891600	0.366400
C181	C18	0.893900	0.796600	0.375700
C191	C19	0.095300	0.431900	0.355600
C201	C20	0.964900	0.968400	0.361800
C211	C21	0.027800	0.149900	0.353200
C221	C22	0.931100	0.386200	0.371100
C231	C23	0.060100	0.942500	0.365400
C241	C24	0.066000	0.844700	0.377800
C251	C25	0.354300	0.953900	0.070000
C261	C26	0.365900	0.932200	0.285600
C271	C27	0.346100	0.101200	0.331700
C281	C28	0.355400	0.020200	0.255200
C291	C29	0.366400	0.880500	0.891600
C301	C30	0.375700	0.893900	0.796600
C311	C31	0.355600	0.095300	0.431900
C321	C32	0.361800	0.964900	0.968400
C331	C33	0.353200	0.027800	0.149900
C341	C34	0.371100	0.931100	0.386200
C351	C35	0.365400	0.060100	0.942500
C361	C36	0.377800	0.066000	0.844700
C371	C37	0.645700	0.930000	0.046100
C381	C38	0.634100	0.714400	0.067800
C391	C39	0.653900	0.668300	0.898800
C401	C40	0.644600	0.744800	0.979800
C411	C41	0.633600	0.108400	0.119500
C421	C42	0.624300	0.203400	0.106100
C431	C43	0.644400	0.568100	0.904700
C441	C44	0.638200	0.031600	0.035100
C451	C45	0.646800	0.850100	0.972200
C461	C46	0.628900	0.613800	0.068900
C471	C47	0.634600	0.057500	0.939900
C481	C48	0.622200	0.155300	0.934000
C491	C49	0.930000	0.046100	0.645700
C501	C50	0.714400	0.067800	0.634100
C511	C51	0.668300	0.898800	0.653900
C521	C52	0.744800	0.979800	0.644600
C531	C53	0.108400	0.119500	0.633600
C541	C54	0.203400	0.106100	0.624300
C551	C55	0.568100	0.904700	0.644400
C561	C56	0.031600	0.035100	0.638200
C571	C57	0.850100	0.972200	0.646800
C581	C58	0.613800	0.068900	0.628900
C591	C59	0.057500	0.939900	0.634600
C601	C60	0.155300	0.934000	0.622200
C611	C61	0.046100	0.645700	0.930000
C621	C62	0.067800	0.634100	0.714400
C631	C63	0.898800	0.653900	0.668300
C641	C64	0.979800	0.644600	0.744800
C651	C65	0.119500	0.633600	0.108400
C661	C66	0.106100	0.624300	0.203400
C671	C67	0.904700	0.644400	0.568100
C681	C68	0.035100	0.638200	0.031600
C691	C69	0.972200	0.646800	0.850100
C701	C70	0.068900	0.628900	0.613800
C711	C71	0.939900	0.634600	0.057500
C721	C72	0.934000	0.622200	0.155300
N11	N1	0.459920	0.367520	0.011320
N21	N2	0.773130	0.382570	0.983100
N31	N3	0.011320	0.459920	0.367520
N41	N4	0.983100	0.773130	0.382570
N51	N5	0.367520	0.011320	0.459920
N61	N6	0.382570	0.983100	0.773130
N71	N7	0.632480	0.540080	0.988680
N81	N8	0.617430	0.226870	0.016900
N91	N9	0.540080	0.988680	0.632480
N101	N10	0.226870	0.016900	0.617430
N111	N11	0.988680	0.632480	0.540080
N121	N12	0.016900	0.617430	0.226870
O11	O1	0.558420	0.325660	0.840180
O21	O2	0.840180	0.558420	0.325660
O31	O3	0.325660	0.840180	0.558420
O41	O4	0.674340	0.441580	0.159820
O51	O5	0.441580	0.159820	0.674340
O61	O6	0.159820	0.674340	0.441580
