data_YEZKUL_clean_PM
_symmetry_space_group_name_H-M	'P1'
_cell_length_a	21.085600
_cell_length_b	21.085600
_cell_length_c	17.967800
_cell_angle_alpha	90.000000
_cell_angle_beta	90.000000
_cell_angle_gamma	120.000000
_symmetry_Int_Tables_number 1

loop_
_symmetry_equiv_pos_as_xyz
'x,y,z'

loop_
_atom_site_label
_atom_site_type_symbol
_atom_site_fract_x
_atom_site_fract_y
_atom_site_fract_z
C11	C1	0.386970	0.523440	0.455640
H11	H1	0.344200	0.505500	0.485600
C21	C2	0.413190	0.590530	0.421780
H21	H2	0.388900	0.617800	0.429100
C31	C3	0.475510	0.618500	0.376700
C41	C4	0.508530	0.575370	0.369460
H31	H3	0.551400	0.592000	0.340100
C51	C5	0.478370	0.508780	0.405170
H41	H4	0.501100	0.480100	0.398700
C61	C6	0.506170	0.691540	0.343900
H51	H5	0.484400	0.719900	0.357300
C71	C7	0.562250	0.721020	0.296820
H61	H6	0.581900	0.691400	0.281000
C81	C8	0.596110	0.795760	0.267390
C91	C9	0.652240	0.818980	0.214740
H71	H7	0.666900	0.785900	0.196600
C101	C10	0.686160	0.890160	0.189340
H81	H8	0.724100	0.904900	0.153400
C111	C11	0.613710	0.917620	0.263250
H91	H9	0.600400	0.952000	0.280500
C121	C12	0.576440	0.846900	0.290640
H101	H10	0.537600	0.833100	0.325200
N11	N1	0.668350	0.939760	0.212780
N21	N2	0.418720	0.482110	0.448520
O11	O1	0.749240	0.012830	0.078760
C131	C13	0.053640	0.856770	0.788970
H111	H11	0.010870	0.838830	0.818930
C141	C14	0.079860	0.923860	0.755110
H121	H12	0.055570	0.951130	0.762430
C151	C15	0.142180	0.951830	0.710030
C161	C16	0.175200	0.908700	0.702790
H131	H13	0.218070	0.925330	0.673430
C171	C17	0.145040	0.842110	0.738500
H141	H14	0.167770	0.813430	0.732030
C181	C18	0.172840	0.024870	0.677230
H151	H15	0.151070	0.053230	0.690630
C191	C19	0.228920	0.054350	0.630150
H161	H16	0.248570	0.024730	0.614330
C201	C20	0.262780	0.129090	0.600720
C211	C21	0.318910	0.152310	0.548070
H171	H17	0.333570	0.119230	0.529930
C221	C22	0.352830	0.223490	0.522670
H181	H18	0.390770	0.238230	0.486730
C231	C23	0.280380	0.250950	0.596580
H191	H19	0.267070	0.285330	0.613830
C241	C24	0.243110	0.180230	0.623970
H201	H20	0.204270	0.166430	0.658530
N31	N3	0.335020	0.273090	0.546110
N41	N4	0.085390	0.815440	0.781850
O21	O2	0.415910	0.346160	0.412090
C251	C25	0.720300	0.190110	0.122310
H211	H21	0.677530	0.172170	0.152270
C261	C26	0.746520	0.257200	0.088450
H221	H22	0.722230	0.284470	0.095770
C271	C27	0.808840	0.285170	0.043370
C281	C28	0.841860	0.242040	0.036130
H231	H23	0.884730	0.258670	0.006770
C291	C29	0.811700	0.175450	0.071840
H241	H24	0.834430	0.146770	0.065370
C301	C30	0.839500	0.358210	0.010570
H251	H25	0.817730	0.386570	0.023970
C311	C31	0.895580	0.387690	0.963490
H261	H26	0.915230	0.358070	0.947670
C321	C32	0.929440	0.462430	0.934060
C331	C33	0.985570	0.485650	0.881410
H271	H27	0.000230	0.452570	0.863270
C341	C34	0.019490	0.556830	0.856010
H281	H28	0.057430	0.571570	0.820070
C351	C35	0.947040	0.584290	0.929920
H291	H29	0.933730	0.618670	0.947170
C361	C36	0.909770	0.513570	0.957310
H301	H30	0.870930	0.499770	0.991870
N51	N5	0.001680	0.606430	0.879450
N61	N6	0.752050	0.148780	0.115190
O31	O3	0.082570	0.679500	0.745430
C371	C37	0.476560	0.863530	0.455640
H311	H31	0.494500	0.838700	0.485600
C381	C38	0.409470	0.822660	0.421780
H321	H32	0.382200	0.771100	0.429100
C391	C39	0.381500	0.857010	0.376700
C401	C40	0.424630	0.933160	0.369460
H331	H33	0.408000	0.959400	0.340100
C411	C41	0.491220	0.969590	0.405170
H341	H34	0.519900	0.021000	0.398700
C421	C42	0.308460	0.814630	0.343900
H351	H35	0.280100	0.764500	0.357300
C431	C43	0.278980	0.841230	0.296820
H361	H36	0.308600	0.890500	0.281000
C441	C44	0.204240	0.800350	0.267390
C451	C45	0.181020	0.833260	0.214740
H371	H37	0.214100	0.881000	0.196600
C461	C46	0.109840	0.796000	0.189340
H381	H38	0.095100	0.819200	0.153400
C471	C47	0.082380	0.696090	0.263250
H391	H39	0.048000	0.648400	0.280500
C481	C48	0.153100	0.729540	0.290640
H401	H40	0.166900	0.704500	0.325200
N71	N7	0.060240	0.728590	0.212780
N81	N8	0.517890	0.936610	0.448520
O41	O4	0.987170	0.736410	0.078760
C491	C49	0.143230	0.196860	0.788970
H411	H41	0.161170	0.172030	0.818930
C501	C50	0.076140	0.155990	0.755110
H421	H42	0.048870	0.104430	0.762430
C511	C51	0.048170	0.190340	0.710030
C521	C52	0.091300	0.266490	0.702790
H431	H43	0.074670	0.292730	0.673430
C531	C53	0.157890	0.302920	0.738500
H441	H44	0.186570	0.354330	0.732030
C541	C54	0.975130	0.147960	0.677230
H451	H45	0.946770	0.097830	0.690630
C551	C55	0.945650	0.174560	0.630150
H461	H46	0.975270	0.223830	0.614330
C561	C56	0.870910	0.133680	0.600720
C571	C57	0.847690	0.166590	0.548070
H471	H47	0.880770	0.214330	0.529930
C581	C58	0.776510	0.129330	0.522670
H481	H48	0.761770	0.152530	0.486730
C591	C59	0.749050	0.029420	0.596580
H491	H49	0.714670	0.981730	0.613830
C601	C60	0.819770	0.062870	0.623970
H501	H50	0.833570	0.037830	0.658530
N91	N9	0.726910	0.061920	0.546110
N101	N10	0.184560	0.269940	0.781850
O51	O5	0.653840	0.069740	0.412090
C611	C61	0.809890	0.530200	0.122310
H511	H51	0.827830	0.505370	0.152270
C621	C62	0.742800	0.489330	0.088450
H521	H52	0.715530	0.437770	0.095770
C631	C63	0.714830	0.523680	0.043370
C641	C64	0.757960	0.599830	0.036130
H531	H53	0.741330	0.626070	0.006770
C651	C65	0.824550	0.636260	0.071840
H541	H54	0.853230	0.687670	0.065370
C661	C66	0.641790	0.481300	0.010570
H551	H55	0.613430	0.431170	0.023970
C671	C67	0.612310	0.507900	0.963490
H561	H56	0.641930	0.557170	0.947670
C681	C68	0.537570	0.467020	0.934060
C691	C69	0.514350	0.499930	0.881410
H571	H57	0.547430	0.547670	0.863270
C701	C70	0.443170	0.462670	0.856010
H581	H58	0.428430	0.485870	0.820070
C711	C71	0.415710	0.362760	0.929920
H591	H59	0.381330	0.315070	0.947170
C721	C72	0.486430	0.396210	0.957310
H601	H60	0.500230	0.371170	0.991870
N111	N11	0.393570	0.395260	0.879450
N121	N12	0.851220	0.603280	0.115190
O61	O6	0.320500	0.403080	0.745430
C731	C73	0.136470	0.613030	0.455640
H611	H61	0.161300	0.655800	0.485600
C741	C74	0.177340	0.586810	0.421780
H621	H62	0.228900	0.611100	0.429100
C751	C75	0.142990	0.524490	0.376700
C761	C76	0.066840	0.491470	0.369460
H631	H63	0.040600	0.448600	0.340100
C771	C77	0.030410	0.521630	0.405170
H641	H64	0.979000	0.498900	0.398700
C781	C78	0.185370	0.493830	0.343900
H651	H65	0.235500	0.515600	0.357300
C791	C79	0.158770	0.437750	0.296820
H661	H66	0.109500	0.418100	0.281000
C801	C80	0.199650	0.403890	0.267390
C811	C81	0.166740	0.347760	0.214740
H671	H67	0.119000	0.333100	0.196600
C821	C82	0.204000	0.313840	0.189340
H681	H68	0.180800	0.275900	0.153400
C831	C83	0.303910	0.386290	0.263250
H691	H69	0.351600	0.399600	0.280500
C841	C84	0.270460	0.423560	0.290640
H701	H70	0.295500	0.462400	0.325200
N131	N13	0.271410	0.331650	0.212780
N141	N14	0.063390	0.581280	0.448520
O71	O7	0.263590	0.250760	0.078760
C851	C85	0.803140	0.946360	0.788970
H711	H71	0.827970	0.989130	0.818930
C861	C86	0.844010	0.920140	0.755110
H721	H72	0.895570	0.944430	0.762430
C871	C87	0.809660	0.857820	0.710030
C881	C88	0.733510	0.824800	0.702790
H731	H73	0.707270	0.781930	0.673430
C891	C89	0.697080	0.854960	0.738500
H741	H74	0.645670	0.832230	0.732030
C901	C90	0.852040	0.827160	0.677230
H751	H75	0.902170	0.848930	0.690630
C911	C91	0.825440	0.771080	0.630150
H761	H76	0.776170	0.751430	0.614330
C921	C92	0.866320	0.737220	0.600720
C931	C93	0.833410	0.681090	0.548070
H771	H77	0.785670	0.666430	0.529930
C941	C94	0.870670	0.647170	0.522670
H781	H78	0.847470	0.609230	0.486730
C951	C95	0.970580	0.719620	0.596580
H791	H79	0.018270	0.732930	0.613830
C961	C96	0.937130	0.756890	0.623970
H801	H80	0.962170	0.795730	0.658530
N151	N15	0.938080	0.664980	0.546110
N161	N16	0.730060	0.914610	0.781850
O81	O8	0.930260	0.584090	0.412090
C971	C97	0.469800	0.279700	0.122310
H811	H81	0.494630	0.322470	0.152270
C981	C98	0.510670	0.253480	0.088450
H821	H82	0.562230	0.277770	0.095770
C991	C99	0.476320	0.191160	0.043370
C1001	C100	0.400170	0.158140	0.036130
H831	H83	0.373930	0.115270	0.006770
C1011	C101	0.363740	0.188300	0.071840
H841	H84	0.312330	0.165570	0.065370
C1021	C102	0.518700	0.160500	0.010570
H851	H85	0.568830	0.182270	0.023970
C1031	C103	0.492100	0.104420	0.963490
H861	H86	0.442830	0.084770	0.947670
C1041	C104	0.532980	0.070560	0.934060
C1051	C105	0.500070	0.014430	0.881410
H871	H87	0.452330	0.999770	0.863270
C1061	C106	0.537330	0.980510	0.856010
H881	H88	0.514130	0.942570	0.820070
C1071	C107	0.637240	0.052960	0.929920
H891	H89	0.684930	0.066270	0.947170
C1081	C108	0.603790	0.090230	0.957310
H901	H90	0.628830	0.129070	0.991870
N171	N17	0.604740	0.998320	0.879450
N181	N18	0.396720	0.247950	0.115190
O91	O9	0.596920	0.917430	0.745430
C1091	C109	0.523440	0.386970	0.544360
H911	H91	0.505500	0.344200	0.514400
C1101	C110	0.590530	0.413190	0.578220
H921	H92	0.617800	0.388900	0.570900
C1111	C111	0.618500	0.475510	0.623300
C1121	C112	0.575370	0.508530	0.630540
H931	H93	0.592000	0.551400	0.659900
C1131	C113	0.508780	0.478370	0.594830
H941	H94	0.480100	0.501100	0.601300
C1141	C114	0.691540	0.506170	0.656100
H951	H95	0.719900	0.484400	0.642700
C1151	C115	0.721020	0.562250	0.703180
H961	H96	0.691400	0.581900	0.719000
C1161	C116	0.795760	0.596110	0.732610
C1171	C117	0.818980	0.652240	0.785260
H971	H97	0.785900	0.666900	0.803400
C1181	C118	0.890160	0.686160	0.810660
H981	H98	0.904900	0.724100	0.846600
C1191	C119	0.917620	0.613710	0.736750
H991	H99	0.952000	0.600400	0.719500
C1201	C120	0.846900	0.576440	0.709360
H1001	H100	0.833100	0.537600	0.674800
N191	N19	0.939760	0.668350	0.787220
N201	N20	0.482110	0.418720	0.551480
O101	O10	0.012830	0.749240	0.921240
C1211	C121	0.190110	0.720300	0.877690
H1011	H101	0.172170	0.677530	0.847730
C1221	C122	0.257200	0.746520	0.911550
H1021	H102	0.284470	0.722230	0.904230
C1231	C123	0.285170	0.808840	0.956630
C1241	C124	0.242040	0.841860	0.963870
H1031	H103	0.258670	0.884730	0.993230
C1251	C125	0.175450	0.811700	0.928160
H1041	H104	0.146770	0.834430	0.934630
C1261	C126	0.358210	0.839500	0.989430
H1051	H105	0.386570	0.817730	0.976030
C1271	C127	0.387690	0.895580	0.036510
H1061	H106	0.358070	0.915230	0.052330
C1281	C128	0.462430	0.929440	0.065940
C1291	C129	0.485650	0.985570	0.118590
H1071	H107	0.452570	0.000230	0.136730
C1301	C130	0.556830	0.019490	0.143990
H1081	H108	0.571570	0.057430	0.179930
C1311	C131	0.584290	0.947040	0.070080
H1091	H109	0.618670	0.933730	0.052830
C1321	C132	0.513570	0.909770	0.042690
H1101	H110	0.499770	0.870930	0.008130
N211	N21	0.606430	0.001680	0.120550
N221	N22	0.148780	0.752050	0.884810
O111	O11	0.679500	0.082570	0.254570
C1331	C133	0.856770	0.053640	0.211030
H1111	H111	0.838830	0.010870	0.181070
C1341	C134	0.923860	0.079860	0.244890
H1121	H112	0.951130	0.055570	0.237570
C1351	C135	0.951830	0.142180	0.289970
C1361	C136	0.908700	0.175200	0.297210
H1131	H113	0.925330	0.218070	0.326570
C1371	C137	0.842110	0.145040	0.261500
H1141	H114	0.813430	0.167770	0.267970
C1381	C138	0.024870	0.172840	0.322770
H1151	H115	0.053230	0.151070	0.309370
C1391	C139	0.054350	0.228920	0.369850
H1161	H116	0.024730	0.248570	0.385670
C1401	C140	0.129090	0.262780	0.399280
C1411	C141	0.152310	0.318910	0.451930
H1171	H117	0.119230	0.333570	0.470070
C1421	C142	0.223490	0.352830	0.477330
H1181	H118	0.238230	0.390770	0.513270
C1431	C143	0.250950	0.280380	0.403420
H1191	H119	0.285330	0.267070	0.386170
C1441	C144	0.180230	0.243110	0.376030
H1201	H120	0.166430	0.204270	0.341470
N231	N23	0.273090	0.335020	0.453890
N241	N24	0.815440	0.085390	0.218150
O121	O12	0.346160	0.415910	0.587910
C1451	C145	0.863530	0.476560	0.544360
H1211	H121	0.838700	0.494500	0.514400
C1461	C146	0.822660	0.409470	0.578220
H1221	H122	0.771100	0.382200	0.570900
C1471	C147	0.857010	0.381500	0.623300
C1481	C148	0.933160	0.424630	0.630540
H1231	H123	0.959400	0.408000	0.659900
C1491	C149	0.969590	0.491220	0.594830
H1241	H124	0.021000	0.519900	0.601300
C1501	C150	0.814630	0.308460	0.656100
H1251	H125	0.764500	0.280100	0.642700
C1511	C151	0.841230	0.278980	0.703180
H1261	H126	0.890500	0.308600	0.719000
C1521	C152	0.800350	0.204240	0.732610
C1531	C153	0.833260	0.181020	0.785260
H1271	H127	0.881000	0.214100	0.803400
C1541	C154	0.796000	0.109840	0.810660
H1281	H128	0.819200	0.095100	0.846600
C1551	C155	0.696090	0.082380	0.736750
H1291	H129	0.648400	0.048000	0.719500
C1561	C156	0.729540	0.153100	0.709360
H1301	H130	0.704500	0.166900	0.674800
N251	N25	0.728590	0.060240	0.787220
N261	N26	0.936610	0.517890	0.551480
O131	O13	0.736410	0.987170	0.921240
C1571	C157	0.530200	0.809890	0.877690
H1311	H131	0.505370	0.827830	0.847730
C1581	C158	0.489330	0.742800	0.911550
H1321	H132	0.437770	0.715530	0.904230
C1591	C159	0.523680	0.714830	0.956630
C1601	C160	0.599830	0.757960	0.963870
H1331	H133	0.626070	0.741330	0.993230
C1611	C161	0.636260	0.824550	0.928160
H1341	H134	0.687670	0.853230	0.934630
C1621	C162	0.481300	0.641790	0.989430
H1351	H135	0.431170	0.613430	0.976030
C1631	C163	0.507900	0.612310	0.036510
H1361	H136	0.557170	0.641930	0.052330
C1641	C164	0.467020	0.537570	0.065940
C1651	C165	0.499930	0.514350	0.118590
H1371	H137	0.547670	0.547430	0.136730
C1661	C166	0.462670	0.443170	0.143990
H1381	H138	0.485870	0.428430	0.179930
C1671	C167	0.362760	0.415710	0.070080
H1391	H139	0.315070	0.381330	0.052830
C1681	C168	0.396210	0.486430	0.042690
H1401	H140	0.371170	0.500230	0.008130
N271	N27	0.395260	0.393570	0.120550
N281	N28	0.603280	0.851220	0.884810
O141	O14	0.403080	0.320500	0.254570
C1691	C169	0.196860	0.143230	0.211030
H1411	H141	0.172030	0.161170	0.181070
C1701	C170	0.155990	0.076140	0.244890
H1421	H142	0.104430	0.048870	0.237570
C1711	C171	0.190340	0.048170	0.289970
C1721	C172	0.266490	0.091300	0.297210
H1431	H143	0.292730	0.074670	0.326570
C1731	C173	0.302920	0.157890	0.261500
H1441	H144	0.354330	0.186570	0.267970
C1741	C174	0.147960	0.975130	0.322770
H1451	H145	0.097830	0.946770	0.309370
C1751	C175	0.174560	0.945650	0.369850
H1461	H146	0.223830	0.975270	0.385670
C1761	C176	0.133680	0.870910	0.399280
C1771	C177	0.166590	0.847690	0.451930
H1471	H147	0.214330	0.880770	0.470070
C1781	C178	0.129330	0.776510	0.477330
H1481	H148	0.152530	0.761770	0.513270
C1791	C179	0.029420	0.749050	0.403420
H1491	H149	0.981730	0.714670	0.386170
C1801	C180	0.062870	0.819770	0.376030
H1501	H150	0.037830	0.833570	0.341470
N291	N29	0.061920	0.726910	0.453890
N301	N30	0.269940	0.184560	0.218150
O151	O15	0.069740	0.653840	0.587910
C1811	C181	0.613030	0.136470	0.544360
H1511	H151	0.655800	0.161300	0.514400
C1821	C182	0.586810	0.177340	0.578220
H1521	H152	0.611100	0.228900	0.570900
C1831	C183	0.524490	0.142990	0.623300
C1841	C184	0.491470	0.066840	0.630540
H1531	H153	0.448600	0.040600	0.659900
C1851	C185	0.521630	0.030410	0.594830
H1541	H154	0.498900	0.979000	0.601300
C1861	C186	0.493830	0.185370	0.656100
H1551	H155	0.515600	0.235500	0.642700
C1871	C187	0.437750	0.158770	0.703180
H1561	H156	0.418100	0.109500	0.719000
C1881	C188	0.403890	0.199650	0.732610
C1891	C189	0.347760	0.166740	0.785260
H1571	H157	0.333100	0.119000	0.803400
C1901	C190	0.313840	0.204000	0.810660
H1581	H158	0.275900	0.180800	0.846600
C1911	C191	0.386290	0.303910	0.736750
H1591	H159	0.399600	0.351600	0.719500
C1921	C192	0.423560	0.270460	0.709360
H1601	H160	0.462400	0.295500	0.674800
N311	N31	0.331650	0.271410	0.787220
N321	N32	0.581280	0.063390	0.551480
O161	O16	0.250760	0.263590	0.921240
C1931	C193	0.279700	0.469800	0.877690
H1611	H161	0.322470	0.494630	0.847730
C1941	C194	0.253480	0.510670	0.911550
H1621	H162	0.277770	0.562230	0.904230
C1951	C195	0.191160	0.476320	0.956630
C1961	C196	0.158140	0.400170	0.963870
H1631	H163	0.115270	0.373930	0.993230
C1971	C197	0.188300	0.363740	0.928160
H1641	H164	0.165570	0.312330	0.934630
C1981	C198	0.160500	0.518700	0.989430
H1651	H165	0.182270	0.568830	0.976030
C1991	C199	0.104420	0.492100	0.036510
H1661	H166	0.084770	0.442830	0.052330
C2001	C200	0.070560	0.532980	0.065940
C2011	C201	0.014430	0.500070	0.118590
H1671	H167	0.999770	0.452330	0.136730
C2021	C202	0.980510	0.537330	0.143990
H1681	H168	0.942570	0.514130	0.179930
C2031	C203	0.052960	0.637240	0.070080
H1691	H169	0.066270	0.684930	0.052830
C2041	C204	0.090230	0.603790	0.042690
H1701	H170	0.129070	0.628830	0.008130
N331	N33	0.998320	0.604740	0.120550
N341	N34	0.247950	0.396720	0.884810
O171	O17	0.917430	0.596920	0.254570
C2051	C205	0.946360	0.803140	0.211030
H1711	H171	0.989130	0.827970	0.181070
C2061	C206	0.920140	0.844010	0.244890
H1721	H172	0.944430	0.895570	0.237570
C2071	C207	0.857820	0.809660	0.289970
C2081	C208	0.824800	0.733510	0.297210
H1731	H173	0.781930	0.707270	0.326570
C2091	C209	0.854960	0.697080	0.261500
H1741	H174	0.832230	0.645670	0.267970
C2101	C210	0.827160	0.852040	0.322770
H1751	H175	0.848930	0.902170	0.309370
C2111	C211	0.771080	0.825440	0.369850
H1761	H176	0.751430	0.776170	0.385670
C2121	C212	0.737220	0.866320	0.399280
C2131	C213	0.681090	0.833410	0.451930
H1771	H177	0.666430	0.785670	0.470070
C2141	C214	0.647170	0.870670	0.477330
H1781	H178	0.609230	0.847470	0.513270
C2151	C215	0.719620	0.970580	0.403420
H1791	H179	0.732930	0.018270	0.386170
C2161	C216	0.756890	0.937130	0.376030
H1801	H180	0.795730	0.962170	0.341470
N351	N35	0.664980	0.938080	0.453890
N361	N36	0.914610	0.730060	0.218150
O181	O18	0.584090	0.930260	0.587910
Mo11	Mo1	0.791670	0.000000	0.000000
Mo21	Mo2	0.458330	0.333330	0.333330
Mo31	Mo3	0.125000	0.666670	0.666670
Mo41	Mo4	0.000000	0.791670	0.000000
Mo51	Mo5	0.666670	0.125000	0.333330
Mo61	Mo6	0.333330	0.458330	0.666670
Mo71	Mo7	0.208330	0.208330	0.000000
Mo81	Mo8	0.875000	0.541670	0.333330
Mo91	Mo9	0.541670	0.875000	0.666670
Ni11	Ni1	0.712630	0.045960	0.166670
Ni21	Ni2	0.379300	0.379300	0.500000
Ni31	Ni3	0.954040	0.666670	0.166670
Ni41	Ni4	0.620700	0.000000	0.500000
Ni51	Ni5	0.333330	0.287370	0.166670
Ni61	Ni6	0.000000	0.620700	0.500000
Ni71	Ni7	0.045960	0.712630	0.833330
Ni81	Ni8	0.666670	0.954040	0.833330
Ni91	Ni9	0.287370	0.333330	0.833330
