data_YEZSEC01_clean_PM
_symmetry_space_group_name_H-M	'P1'
_cell_length_a	26.106500
_cell_length_b	26.106500
_cell_length_c	26.106500
_cell_angle_alpha	90.000000
_cell_angle_beta	90.000000
_cell_angle_gamma	90.000000
_symmetry_Int_Tables_number 1

loop_
_symmetry_equiv_pos_as_xyz
'x,y,z'

loop_
_atom_site_label
_atom_site_type_symbol
_atom_site_fract_x
_atom_site_fract_y
_atom_site_fract_z
C11	C1	0.009200	0.874500	0.252700
C21	C2	0.003600	0.881500	0.193800
H11	H1	0.033700	0.866800	0.176100
H21	H2	0.972500	0.863600	0.181500
O11	O1	0.009000	0.913900	0.279700
O21	O2	0.013600	0.829700	0.271200
C31	C3	0.009200	0.374500	0.752700
C41	C4	0.003600	0.381500	0.693800
H31	H3	0.033700	0.366800	0.676100
H41	H4	0.972500	0.363600	0.681500
O31	O3	0.009000	0.413900	0.779700
O41	O4	0.013600	0.329700	0.771200
C51	C5	0.509200	0.874500	0.752700
C61	C6	0.503600	0.881500	0.693800
H51	H5	0.533700	0.866800	0.676100
H61	H6	0.472500	0.863600	0.681500
O51	O5	0.509000	0.913900	0.779700
O61	O6	0.513600	0.829700	0.771200
C71	C7	0.509200	0.374500	0.252700
C81	C8	0.503600	0.381500	0.193800
H71	H7	0.533700	0.366800	0.176100
H81	H8	0.472500	0.363600	0.181500
O71	O7	0.509000	0.413900	0.279700
O81	O8	0.513600	0.329700	0.271200
C91	C9	0.240800	0.875500	0.752700
C101	C10	0.246400	0.868500	0.693800
H91	H9	0.216300	0.883200	0.676100
H101	H10	0.277500	0.886400	0.681500
O91	O9	0.241000	0.836100	0.779700
O101	O10	0.236400	0.920300	0.771200
C111	C11	0.240800	0.375500	0.252700
C121	C12	0.246400	0.368500	0.193800
H111	H11	0.216300	0.383200	0.176100
H121	H12	0.277500	0.386400	0.181500
O111	O11	0.241000	0.336100	0.279700
O121	O12	0.236400	0.420300	0.271200
C131	C13	0.740800	0.875500	0.252700
C141	C14	0.746400	0.868500	0.193800
H131	H13	0.716300	0.883200	0.176100
H141	H14	0.777500	0.886400	0.181500
O131	O13	0.741000	0.836100	0.279700
O141	O14	0.736400	0.920300	0.271200
C151	C15	0.740800	0.375500	0.752700
C161	C16	0.746400	0.368500	0.693800
H151	H15	0.716300	0.383200	0.676100
H161	H16	0.777500	0.386400	0.681500
O151	O15	0.741000	0.336100	0.779700
O161	O16	0.736400	0.420300	0.771200
C171	C17	0.740800	0.374500	0.997300
C181	C18	0.746400	0.381500	0.056200
H171	H17	0.716300	0.366800	0.073900
H181	H18	0.777500	0.363600	0.068500
O171	O17	0.741000	0.413900	0.970300
O181	O18	0.736400	0.329700	0.978800
C191	C19	0.740800	0.874500	0.497300
C201	C20	0.746400	0.881500	0.556200
H191	H19	0.716300	0.866800	0.573900
H201	H20	0.777500	0.863600	0.568500
O191	O19	0.741000	0.913900	0.470300
O201	O20	0.736400	0.829700	0.478800
C211	C21	0.240800	0.374500	0.497300
C221	C22	0.246400	0.381500	0.556200
H211	H21	0.216300	0.366800	0.573900
H221	H22	0.277500	0.363600	0.568500
O211	O21	0.241000	0.413900	0.470300
O221	O22	0.236400	0.329700	0.478800
C231	C23	0.240800	0.874500	0.997300
C241	C24	0.246400	0.881500	0.056200
H231	H23	0.216300	0.866800	0.073900
H241	H24	0.277500	0.863600	0.068500
O231	O23	0.241000	0.913900	0.970300
O241	O24	0.236400	0.829700	0.978800
C251	C25	0.509200	0.375500	0.497300
C261	C26	0.503600	0.368500	0.556200
H251	H25	0.533700	0.383200	0.573900
H261	H26	0.472500	0.386400	0.568500
O251	O25	0.509000	0.336100	0.470300
O261	O26	0.513600	0.420300	0.478800
C271	C27	0.509200	0.875500	0.997300
C281	C28	0.503600	0.868500	0.056200
H271	H27	0.533700	0.883200	0.073900
H281	H28	0.472500	0.886400	0.068500
O271	O27	0.509000	0.836100	0.970300
O281	O28	0.513600	0.920300	0.978800
C291	C29	0.009200	0.375500	0.997300
C301	C30	0.003600	0.368500	0.056200
H291	H29	0.033700	0.383200	0.073900
H301	H30	0.972500	0.386400	0.068500
O291	O29	0.009000	0.336100	0.970300
O301	O30	0.013600	0.420300	0.978800
C311	C31	0.009200	0.875500	0.497300
C321	C32	0.003600	0.868500	0.556200
H311	H31	0.033700	0.883200	0.573900
H321	H32	0.972500	0.886400	0.568500
O311	O31	0.009000	0.836100	0.470300
O321	O32	0.013600	0.920300	0.478800
C331	C33	0.252700	0.009200	0.874500
C341	C34	0.193800	0.003600	0.881500
H331	H33	0.176100	0.033700	0.866800
H341	H34	0.181500	0.972500	0.863600
O331	O33	0.279700	0.009000	0.913900
O341	O34	0.271200	0.013600	0.829700
C351	C35	0.252700	0.509200	0.374500
C361	C36	0.193800	0.503600	0.381500
H351	H35	0.176100	0.533700	0.366800
H361	H36	0.181500	0.472500	0.363600
O351	O35	0.279700	0.509000	0.413900
O361	O36	0.271200	0.513600	0.329700
C371	C37	0.752700	0.009200	0.374500
C381	C38	0.693800	0.003600	0.381500
H371	H37	0.676100	0.033700	0.366800
H381	H38	0.681500	0.972500	0.363600
O371	O37	0.779700	0.009000	0.413900
O381	O38	0.771200	0.013600	0.329700
C391	C39	0.752700	0.509200	0.874500
C401	C40	0.693800	0.503600	0.881500
H391	H39	0.676100	0.533700	0.866800
H401	H40	0.681500	0.472500	0.863600
O391	O39	0.779700	0.509000	0.913900
O401	O40	0.771200	0.513600	0.829700
C411	C41	0.752700	0.240800	0.875500
C421	C42	0.693800	0.246400	0.868500
H411	H41	0.676100	0.216300	0.883200
H421	H42	0.681500	0.277500	0.886400
O411	O41	0.779700	0.241000	0.836100
O421	O42	0.771200	0.236400	0.920300
C431	C43	0.752700	0.740800	0.375500
C441	C44	0.693800	0.746400	0.368500
H431	H43	0.676100	0.716300	0.383200
H441	H44	0.681500	0.777500	0.386400
O431	O43	0.779700	0.741000	0.336100
O441	O44	0.771200	0.736400	0.420300
C451	C45	0.252700	0.240800	0.375500
C461	C46	0.193800	0.246400	0.368500
H451	H45	0.176100	0.216300	0.383200
H461	H46	0.181500	0.277500	0.386400
O451	O45	0.279700	0.241000	0.336100
O461	O46	0.271200	0.236400	0.420300
C471	C47	0.252700	0.740800	0.875500
C481	C48	0.193800	0.746400	0.868500
H471	H47	0.176100	0.716300	0.883200
H481	H48	0.181500	0.777500	0.886400
O471	O47	0.279700	0.741000	0.836100
O481	O48	0.271200	0.736400	0.920300
C491	C49	0.997300	0.740800	0.374500
C501	C50	0.056200	0.746400	0.381500
H491	H49	0.073900	0.716300	0.366800
H501	H50	0.068500	0.777500	0.363600
O491	O49	0.970300	0.741000	0.413900
O501	O50	0.978800	0.736400	0.329700
C511	C51	0.997300	0.240800	0.874500
C521	C52	0.056200	0.246400	0.881500
H511	H51	0.073900	0.216300	0.866800
H521	H52	0.068500	0.277500	0.863600
O511	O51	0.970300	0.241000	0.913900
O521	O52	0.978800	0.236400	0.829700
C531	C53	0.497300	0.740800	0.874500
C541	C54	0.556200	0.746400	0.881500
H531	H53	0.573900	0.716300	0.866800
H541	H54	0.568500	0.777500	0.863600
O531	O53	0.470300	0.741000	0.913900
O541	O54	0.478800	0.736400	0.829700
C551	C55	0.497300	0.240800	0.374500
C561	C56	0.556200	0.246400	0.381500
H551	H55	0.573900	0.216300	0.366800
H561	H56	0.568500	0.277500	0.363600
O551	O55	0.470300	0.241000	0.413900
O561	O56	0.478800	0.236400	0.329700
C571	C57	0.497300	0.509200	0.375500
C581	C58	0.556200	0.503600	0.368500
H571	H57	0.573900	0.533700	0.383200
H581	H58	0.568500	0.472500	0.386400
O571	O57	0.470300	0.509000	0.336100
O581	O58	0.478800	0.513600	0.420300
C591	C59	0.497300	0.009200	0.875500
C601	C60	0.556200	0.003600	0.868500
H591	H59	0.573900	0.033700	0.883200
H601	H60	0.568500	0.972500	0.886400
O591	O59	0.470300	0.009000	0.836100
O601	O60	0.478800	0.013600	0.920300
C611	C61	0.997300	0.509200	0.875500
C621	C62	0.056200	0.503600	0.868500
H611	H61	0.073900	0.533700	0.883200
H621	H62	0.068500	0.472500	0.886400
O611	O61	0.970300	0.509000	0.836100
O621	O62	0.978800	0.513600	0.920300
C631	C63	0.997300	0.009200	0.375500
C641	C64	0.056200	0.003600	0.368500
H631	H63	0.073900	0.033700	0.383200
H641	H64	0.068500	0.972500	0.386400
O631	O63	0.970300	0.009000	0.336100
O641	O64	0.978800	0.013600	0.420300
C651	C65	0.874500	0.252700	0.009200
C661	C66	0.881500	0.193800	0.003600
H651	H65	0.866800	0.176100	0.033700
H661	H66	0.863600	0.181500	0.972500
O651	O65	0.913900	0.279700	0.009000
O661	O66	0.829700	0.271200	0.013600
C671	C67	0.874500	0.752700	0.509200
C681	C68	0.881500	0.693800	0.503600
H671	H67	0.866800	0.676100	0.533700
H681	H68	0.863600	0.681500	0.472500
O671	O67	0.913900	0.779700	0.509000
O681	O68	0.829700	0.771200	0.513600
C691	C69	0.374500	0.252700	0.509200
C701	C70	0.381500	0.193800	0.503600
H691	H69	0.366800	0.176100	0.533700
H701	H70	0.363600	0.181500	0.472500
O691	O69	0.413900	0.279700	0.509000
O701	O70	0.329700	0.271200	0.513600
C711	C71	0.374500	0.752700	0.009200
C721	C72	0.381500	0.693800	0.003600
H711	H71	0.366800	0.676100	0.033700
H721	H72	0.363600	0.681500	0.972500
O711	O71	0.413900	0.779700	0.009000
O721	O72	0.329700	0.771200	0.013600
C731	C73	0.875500	0.752700	0.240800
C741	C74	0.868500	0.693800	0.246400
H731	H73	0.883200	0.676100	0.216300
H741	H74	0.886400	0.681500	0.277500
O731	O73	0.836100	0.779700	0.241000
O741	O74	0.920300	0.771200	0.236400
C751	C75	0.875500	0.252700	0.740800
C761	C76	0.868500	0.193800	0.746400
H751	H75	0.883200	0.176100	0.716300
H761	H76	0.886400	0.181500	0.777500
O751	O75	0.836100	0.279700	0.741000
O761	O76	0.920300	0.271200	0.736400
C771	C77	0.375500	0.752700	0.740800
C781	C78	0.368500	0.693800	0.746400
H771	H77	0.383200	0.676100	0.716300
H781	H78	0.386400	0.681500	0.777500
O771	O77	0.336100	0.779700	0.741000
O781	O78	0.420300	0.771200	0.736400
C791	C79	0.375500	0.252700	0.240800
C801	C80	0.368500	0.193800	0.246400
H791	H79	0.383200	0.176100	0.216300
H801	H80	0.386400	0.181500	0.277500
O791	O79	0.336100	0.279700	0.241000
O801	O80	0.420300	0.271200	0.236400
C811	C81	0.374500	0.997300	0.740800
C821	C82	0.381500	0.056200	0.746400
H811	H81	0.366800	0.073900	0.716300
H821	H82	0.363600	0.068500	0.777500
O811	O81	0.413900	0.970300	0.741000
O821	O82	0.329700	0.978800	0.736400
C831	C83	0.374500	0.497300	0.240800
C841	C84	0.381500	0.556200	0.246400
H831	H83	0.366800	0.573900	0.216300
H841	H84	0.363600	0.568500	0.277500
O831	O83	0.413900	0.470300	0.241000
O841	O84	0.329700	0.478800	0.236400
C851	C85	0.874500	0.997300	0.240800
C861	C86	0.881500	0.056200	0.246400
H851	H85	0.866800	0.073900	0.216300
H861	H86	0.863600	0.068500	0.277500
O851	O85	0.913900	0.970300	0.241000
O861	O86	0.829700	0.978800	0.236400
C871	C87	0.874500	0.497300	0.740800
C881	C88	0.881500	0.556200	0.746400
H871	H87	0.866800	0.573900	0.716300
H881	H88	0.863600	0.568500	0.777500
O871	O87	0.913900	0.470300	0.741000
O881	O88	0.829700	0.478800	0.736400
C891	C89	0.375500	0.497300	0.509200
C901	C90	0.368500	0.556200	0.503600
H891	H89	0.383200	0.573900	0.533700
H901	H90	0.386400	0.568500	0.472500
O891	O89	0.336100	0.470300	0.509000
O901	O90	0.420300	0.478800	0.513600
C911	C91	0.375500	0.997300	0.009200
C921	C92	0.368500	0.056200	0.003600
H911	H91	0.383200	0.073900	0.033700
H921	H92	0.386400	0.068500	0.972500
O911	O91	0.336100	0.970300	0.009000
O921	O92	0.420300	0.978800	0.013600
C931	C93	0.875500	0.497300	0.009200
C941	C94	0.868500	0.556200	0.003600
H931	H93	0.883200	0.573900	0.033700
H941	H94	0.886400	0.568500	0.972500
O931	O93	0.836100	0.470300	0.009000
O941	O94	0.920300	0.478800	0.013600
C951	C95	0.875500	0.997300	0.509200
C961	C96	0.868500	0.056200	0.503600
H951	H95	0.883200	0.073900	0.533700
H961	H96	0.886400	0.068500	0.472500
O951	O95	0.836100	0.970300	0.509000
O961	O96	0.920300	0.978800	0.513600
C971	C97	0.624500	0.259200	0.747300
C981	C98	0.631500	0.253600	0.806200
H971	H97	0.616800	0.283700	0.823900
H981	H98	0.613600	0.222500	0.818500
O971	O97	0.663900	0.259000	0.720300
O981	O98	0.579700	0.263600	0.728800
C991	C99	0.624500	0.759200	0.247300
C1001	C100	0.631500	0.753600	0.306200
H991	H99	0.616800	0.783700	0.323900
H1001	H100	0.613600	0.722500	0.318500
O991	O99	0.663900	0.759000	0.220300
O1001	O100	0.579700	0.763600	0.228800
C1011	C101	0.124500	0.259200	0.247300
C1021	C102	0.131500	0.253600	0.306200
H1011	H101	0.116800	0.283700	0.323900
H1021	H102	0.113600	0.222500	0.318500
O1011	O101	0.163900	0.259000	0.220300
O1021	O102	0.079700	0.263600	0.228800
C1031	C103	0.124500	0.759200	0.747300
C1041	C104	0.131500	0.753600	0.806200
H1031	H103	0.116800	0.783700	0.823900
H1041	H104	0.113600	0.722500	0.818500
O1031	O103	0.163900	0.759000	0.720300
O1041	O104	0.079700	0.763600	0.728800
C1051	C105	0.625500	0.490800	0.247300
C1061	C106	0.618500	0.496400	0.306200
H1051	H105	0.633200	0.466300	0.323900
H1061	H106	0.636400	0.527500	0.318500
O1051	O105	0.586100	0.491000	0.220300
O1061	O106	0.670300	0.486400	0.228800
C1071	C107	0.625500	0.990800	0.747300
C1081	C108	0.618500	0.996400	0.806200
H1071	H107	0.633200	0.966300	0.823900
H1081	H108	0.636400	0.027500	0.818500
O1071	O107	0.586100	0.991000	0.720300
O1081	O108	0.670300	0.986400	0.728800
C1091	C109	0.125500	0.490800	0.747300
C1101	C110	0.118500	0.496400	0.806200
H1091	H109	0.133200	0.466300	0.823900
H1101	H110	0.136400	0.527500	0.818500
O1091	O109	0.086100	0.491000	0.720300
O1101	O110	0.170300	0.486400	0.728800
C1111	C111	0.125500	0.990800	0.247300
C1121	C112	0.118500	0.996400	0.306200
H1111	H111	0.133200	0.966300	0.323900
H1121	H112	0.136400	0.027500	0.318500
O1111	O111	0.086100	0.991000	0.220300
O1121	O112	0.170300	0.986400	0.228800
C1131	C113	0.124500	0.990800	0.002700
C1141	C114	0.131500	0.996400	0.943800
H1131	H113	0.116800	0.966300	0.926100
H1141	H114	0.113600	0.027500	0.931500
O1131	O113	0.163900	0.991000	0.029700
O1141	O114	0.079700	0.986400	0.021200
C1151	C115	0.124500	0.490800	0.502700
C1161	C116	0.131500	0.496400	0.443800
H1151	H115	0.116800	0.466300	0.426100
H1161	H116	0.113600	0.527500	0.431500
O1151	O115	0.163900	0.491000	0.529700
O1161	O116	0.079700	0.486400	0.521200
C1171	C117	0.624500	0.990800	0.502700
C1181	C118	0.631500	0.996400	0.443800
H1171	H117	0.616800	0.966300	0.426100
H1181	H118	0.613600	0.027500	0.431500
O1171	O117	0.663900	0.991000	0.529700
O1181	O118	0.579700	0.986400	0.521200
C1191	C119	0.624500	0.490800	0.002700
C1201	C120	0.631500	0.496400	0.943800
H1191	H119	0.616800	0.466300	0.926100
H1201	H120	0.613600	0.527500	0.931500
O1191	O119	0.663900	0.491000	0.029700
O1201	O120	0.579700	0.486400	0.021200
C1211	C121	0.125500	0.759200	0.502700
C1221	C122	0.118500	0.753600	0.443800
H1211	H121	0.133200	0.783700	0.426100
H1221	H122	0.136400	0.722500	0.431500
O1211	O121	0.086100	0.759000	0.529700
O1221	O122	0.170300	0.763600	0.521200
C1231	C123	0.125500	0.259200	0.002700
C1241	C124	0.118500	0.253600	0.943800
H1231	H123	0.133200	0.283700	0.926100
H1241	H124	0.136400	0.222500	0.931500
O1231	O123	0.086100	0.259000	0.029700
O1241	O124	0.170300	0.263600	0.021200
C1251	C125	0.625500	0.759200	0.002700
C1261	C126	0.618500	0.753600	0.943800
H1251	H125	0.633200	0.783700	0.926100
H1261	H126	0.636400	0.722500	0.931500
O1251	O125	0.586100	0.759000	0.029700
O1261	O126	0.670300	0.763600	0.021200
C1271	C127	0.625500	0.259200	0.502700
C1281	C128	0.618500	0.253600	0.443800
H1271	H127	0.633200	0.283700	0.426100
H1281	H128	0.636400	0.222500	0.431500
O1271	O127	0.586100	0.259000	0.529700
O1281	O128	0.670300	0.263600	0.521200
C1291	C129	0.759200	0.502700	0.125500
C1301	C130	0.753600	0.443800	0.118500
H1291	H129	0.783700	0.426100	0.133200
H1301	H130	0.722500	0.431500	0.136400
O1291	O129	0.759000	0.529700	0.086100
O1301	O130	0.763600	0.521200	0.170300
C1311	C131	0.759200	0.002700	0.625500
C1321	C132	0.753600	0.943800	0.618500
H1311	H131	0.783700	0.926100	0.633200
H1321	H132	0.722500	0.931500	0.636400
O1311	O131	0.759000	0.029700	0.586100
O1321	O132	0.763600	0.021200	0.670300
C1331	C133	0.259200	0.502700	0.625500
C1341	C134	0.253600	0.443800	0.618500
H1331	H133	0.283700	0.426100	0.633200
H1341	H134	0.222500	0.431500	0.636400
O1331	O133	0.259000	0.529700	0.586100
O1341	O134	0.263600	0.521200	0.670300
C1351	C135	0.259200	0.002700	0.125500
C1361	C136	0.253600	0.943800	0.118500
H1351	H135	0.283700	0.926100	0.133200
H1361	H136	0.222500	0.931500	0.136400
O1351	O135	0.259000	0.029700	0.086100
O1361	O136	0.263600	0.021200	0.170300
C1371	C137	0.990800	0.002700	0.124500
C1381	C138	0.996400	0.943800	0.131500
H1371	H137	0.966300	0.926100	0.116800
H1381	H138	0.027500	0.931500	0.113600
O1371	O137	0.991000	0.029700	0.163900
O1381	O138	0.986400	0.021200	0.079700
C1391	C139	0.990800	0.502700	0.624500
C1401	C140	0.996400	0.443800	0.631500
H1391	H139	0.966300	0.426100	0.616800
H1401	H140	0.027500	0.431500	0.613600
O1391	O139	0.991000	0.529700	0.663900
O1401	O140	0.986400	0.521200	0.579700
C1411	C141	0.490800	0.002700	0.624500
C1421	C142	0.496400	0.943800	0.631500
H1411	H141	0.466300	0.926100	0.616800
H1421	H142	0.527500	0.931500	0.613600
O1411	O141	0.491000	0.029700	0.663900
O1421	O142	0.486400	0.021200	0.579700
C1431	C143	0.490800	0.502700	0.124500
C1441	C144	0.496400	0.443800	0.131500
H1431	H143	0.466300	0.426100	0.116800
H1441	H144	0.527500	0.431500	0.113600
O1431	O143	0.491000	0.529700	0.163900
O1441	O144	0.486400	0.521200	0.079700
C1451	C145	0.490800	0.247300	0.625500
C1461	C146	0.496400	0.306200	0.618500
H1451	H145	0.466300	0.323900	0.633200
H1461	H146	0.527500	0.318500	0.636400
O1451	O145	0.491000	0.220300	0.586100
O1461	O146	0.486400	0.228800	0.670300
C1471	C147	0.490800	0.747300	0.125500
C1481	C148	0.496400	0.806200	0.118500
H1471	H147	0.466300	0.823900	0.133200
H1481	H148	0.527500	0.818500	0.136400
O1471	O147	0.491000	0.720300	0.086100
O1481	O148	0.486400	0.728800	0.170300
C1491	C149	0.990800	0.247300	0.125500
C1501	C150	0.996400	0.306200	0.118500
H1491	H149	0.966300	0.323900	0.133200
H1501	H150	0.027500	0.318500	0.136400
O1491	O149	0.991000	0.220300	0.086100
O1501	O150	0.986400	0.228800	0.170300
C1511	C151	0.990800	0.747300	0.625500
C1521	C152	0.996400	0.806200	0.618500
H1511	H151	0.966300	0.823900	0.633200
H1521	H152	0.027500	0.818500	0.636400
O1511	O151	0.991000	0.720300	0.586100
O1521	O152	0.986400	0.728800	0.670300
C1531	C153	0.259200	0.747300	0.624500
C1541	C154	0.253600	0.806200	0.631500
H1531	H153	0.283700	0.823900	0.616800
H1541	H154	0.222500	0.818500	0.613600
O1531	O153	0.259000	0.720300	0.663900
O1541	O154	0.263600	0.728800	0.579700
C1551	C155	0.259200	0.247300	0.124500
C1561	C156	0.253600	0.306200	0.131500
H1551	H155	0.283700	0.323900	0.116800
H1561	H156	0.222500	0.318500	0.113600
O1551	O155	0.259000	0.220300	0.163900
O1561	O156	0.263600	0.228800	0.079700
C1571	C157	0.759200	0.747300	0.124500
C1581	C158	0.753600	0.806200	0.131500
H1571	H157	0.783700	0.823900	0.116800
H1581	H158	0.722500	0.818500	0.113600
O1571	O157	0.759000	0.720300	0.163900
O1581	O158	0.763600	0.728800	0.079700
C1591	C159	0.759200	0.247300	0.624500
C1601	C160	0.753600	0.306200	0.631500
H1591	H159	0.783700	0.323900	0.616800
H1601	H160	0.722500	0.318500	0.613600
O1591	O159	0.759000	0.220300	0.663900
O1601	O160	0.763600	0.228800	0.579700
C1611	C161	0.002700	0.124500	0.990800
C1621	C162	0.943800	0.131500	0.996400
H1611	H161	0.926100	0.116800	0.966300
H1621	H162	0.931500	0.113600	0.027500
O1611	O161	0.029700	0.163900	0.991000
O1621	O162	0.021200	0.079700	0.986400
C1631	C163	0.002700	0.624500	0.490800
C1641	C164	0.943800	0.631500	0.496400
H1631	H163	0.926100	0.616800	0.466300
H1641	H164	0.931500	0.613600	0.527500
O1631	O163	0.029700	0.663900	0.491000
O1641	O164	0.021200	0.579700	0.486400
C1651	C165	0.502700	0.124500	0.490800
C1661	C166	0.443800	0.131500	0.496400
H1651	H165	0.426100	0.116800	0.466300
H1661	H166	0.431500	0.113600	0.527500
O1651	O165	0.529700	0.163900	0.491000
O1661	O166	0.521200	0.079700	0.486400
C1671	C167	0.502700	0.624500	0.990800
C1681	C168	0.443800	0.631500	0.996400
H1671	H167	0.426100	0.616800	0.966300
H1681	H168	0.431500	0.613600	0.027500
O1671	O167	0.529700	0.663900	0.991000
O1681	O168	0.521200	0.579700	0.986400
C1691	C169	0.502700	0.125500	0.759200
C1701	C170	0.443800	0.118500	0.753600
H1691	H169	0.426100	0.133200	0.783700
H1701	H170	0.431500	0.136400	0.722500
O1691	O169	0.529700	0.086100	0.759000
O1701	O170	0.521200	0.170300	0.763600
C1711	C171	0.502700	0.625500	0.259200
C1721	C172	0.443800	0.618500	0.253600
H1711	H171	0.426100	0.633200	0.283700
H1721	H172	0.431500	0.636400	0.222500
O1711	O171	0.529700	0.586100	0.259000
O1721	O172	0.521200	0.670300	0.263600
C1731	C173	0.002700	0.125500	0.259200
C1741	C174	0.943800	0.118500	0.253600
H1731	H173	0.926100	0.133200	0.283700
H1741	H174	0.931500	0.136400	0.222500
O1731	O173	0.029700	0.086100	0.259000
O1741	O174	0.021200	0.170300	0.263600
C1751	C175	0.002700	0.625500	0.759200
C1761	C176	0.943800	0.618500	0.753600
H1751	H175	0.926100	0.633200	0.783700
H1761	H176	0.931500	0.636400	0.722500
O1751	O175	0.029700	0.586100	0.759000
O1761	O176	0.021200	0.670300	0.763600
C1771	C177	0.747300	0.624500	0.259200
C1781	C178	0.806200	0.631500	0.253600
H1771	H177	0.823900	0.616800	0.283700
H1781	H178	0.818500	0.613600	0.222500
O1771	O177	0.720300	0.663900	0.259000
O1781	O178	0.728800	0.579700	0.263600
C1791	C179	0.747300	0.124500	0.759200
C1801	C180	0.806200	0.131500	0.753600
H1791	H179	0.823900	0.116800	0.783700
H1801	H180	0.818500	0.113600	0.722500
O1791	O179	0.720300	0.163900	0.759000
O1801	O180	0.728800	0.079700	0.763600
C1811	C181	0.247300	0.624500	0.759200
C1821	C182	0.306200	0.631500	0.753600
H1811	H181	0.323900	0.616800	0.783700
H1821	H182	0.318500	0.613600	0.722500
O1811	O181	0.220300	0.663900	0.759000
O1821	O182	0.228800	0.579700	0.763600
C1831	C183	0.247300	0.124500	0.259200
C1841	C184	0.306200	0.131500	0.253600
H1831	H183	0.323900	0.116800	0.283700
H1841	H184	0.318500	0.113600	0.222500
O1831	O183	0.220300	0.163900	0.259000
O1841	O184	0.228800	0.079700	0.263600
C1851	C185	0.247300	0.625500	0.490800
C1861	C186	0.306200	0.618500	0.496400
H1851	H185	0.323900	0.633200	0.466300
H1861	H186	0.318500	0.636400	0.527500
O1851	O185	0.220300	0.586100	0.491000
O1861	O186	0.228800	0.670300	0.486400
C1871	C187	0.247300	0.125500	0.990800
C1881	C188	0.306200	0.118500	0.996400
H1871	H187	0.323900	0.133200	0.966300
H1881	H188	0.318500	0.136400	0.027500
O1871	O187	0.220300	0.086100	0.991000
O1881	O188	0.228800	0.170300	0.986400
C1891	C189	0.747300	0.625500	0.990800
C1901	C190	0.806200	0.618500	0.996400
H1891	H189	0.823900	0.633200	0.966300
H1901	H190	0.818500	0.636400	0.027500
O1891	O189	0.720300	0.586100	0.991000
O1901	O190	0.728800	0.670300	0.986400
C1911	C191	0.747300	0.125500	0.490800
C1921	C192	0.806200	0.118500	0.496400
H1911	H191	0.823900	0.133200	0.466300
H1921	H192	0.818500	0.136400	0.527500
O1911	O191	0.720300	0.086100	0.491000
O1921	O192	0.728800	0.170300	0.486400
C1931	C193	0.990800	0.125500	0.747300
C1941	C194	0.996400	0.118500	0.806200
H1931	H193	0.966300	0.133200	0.823900
H1941	H194	0.027500	0.136400	0.818500
O1931	O193	0.991000	0.086100	0.720300
O1941	O194	0.986400	0.170300	0.728800
C1951	C195	0.990800	0.625500	0.247300
C1961	C196	0.996400	0.618500	0.306200
H1951	H195	0.966300	0.633200	0.323900
H1961	H196	0.027500	0.636400	0.318500
O1951	O195	0.991000	0.586100	0.220300
O1961	O196	0.986400	0.670300	0.228800
C1971	C197	0.490800	0.125500	0.247300
C1981	C198	0.496400	0.118500	0.306200
H1971	H197	0.466300	0.133200	0.323900
H1981	H198	0.527500	0.136400	0.318500
O1971	O197	0.491000	0.086100	0.220300
O1981	O198	0.486400	0.170300	0.228800
C1991	C199	0.490800	0.625500	0.747300
C2001	C200	0.496400	0.618500	0.806200
H1991	H199	0.466300	0.633200	0.823900
H2001	H200	0.527500	0.636400	0.818500
O1991	O199	0.491000	0.586100	0.720300
O2001	O200	0.486400	0.670300	0.728800
C2011	C201	0.759200	0.124500	0.247300
C2021	C202	0.753600	0.131500	0.306200
H2011	H201	0.783700	0.116800	0.323900
H2021	H202	0.722500	0.113600	0.318500
O2011	O201	0.759000	0.163900	0.220300
O2021	O202	0.763600	0.079700	0.228800
C2031	C203	0.759200	0.624500	0.747300
C2041	C204	0.753600	0.631500	0.806200
H2031	H203	0.783700	0.616800	0.823900
H2041	H204	0.722500	0.613600	0.818500
O2031	O203	0.759000	0.663900	0.720300
O2041	O204	0.763600	0.579700	0.728800
C2051	C205	0.259200	0.124500	0.747300
C2061	C206	0.253600	0.131500	0.806200
H2051	H205	0.283700	0.116800	0.823900
H2061	H206	0.222500	0.113600	0.818500
O2051	O205	0.259000	0.163900	0.720300
O2061	O206	0.263600	0.079700	0.728800
C2071	C207	0.259200	0.624500	0.247300
C2081	C208	0.253600	0.631500	0.306200
H2071	H207	0.283700	0.616800	0.323900
H2081	H208	0.222500	0.613600	0.318500
O2071	O207	0.259000	0.663900	0.220300
O2081	O208	0.263600	0.579700	0.228800
C2091	C209	0.259200	0.625500	0.002700
C2101	C210	0.253600	0.618500	0.943800
H2091	H209	0.283700	0.633200	0.926100
H2101	H210	0.222500	0.636400	0.931500
O2091	O209	0.259000	0.586100	0.029700
O2101	O210	0.263600	0.670300	0.021200
C2111	C211	0.259200	0.125500	0.502700
C2121	C212	0.253600	0.118500	0.443800
H2111	H211	0.283700	0.133200	0.426100
H2121	H212	0.222500	0.136400	0.431500
O2111	O211	0.259000	0.086100	0.529700
O2121	O212	0.263600	0.170300	0.521200
C2131	C213	0.759200	0.625500	0.502700
C2141	C214	0.753600	0.618500	0.443800
H2131	H213	0.783700	0.633200	0.426100
H2141	H214	0.722500	0.636400	0.431500
O2131	O213	0.759000	0.586100	0.529700
O2141	O214	0.763600	0.670300	0.521200
C2151	C215	0.759200	0.125500	0.002700
C2161	C216	0.753600	0.118500	0.943800
H2151	H215	0.783700	0.133200	0.926100
H2161	H216	0.722500	0.136400	0.931500
O2151	O215	0.759000	0.086100	0.029700
O2161	O216	0.763600	0.170300	0.021200
C2171	C217	0.490800	0.624500	0.502700
C2181	C218	0.496400	0.631500	0.443800
H2171	H217	0.466300	0.616800	0.426100
H2181	H218	0.527500	0.613600	0.431500
O2171	O217	0.491000	0.663900	0.529700
O2181	O218	0.486400	0.579700	0.521200
C2191	C219	0.490800	0.124500	0.002700
C2201	C220	0.496400	0.131500	0.943800
H2191	H219	0.466300	0.116800	0.926100
H2201	H220	0.527500	0.113600	0.931500
O2191	O219	0.491000	0.163900	0.029700
O2201	O220	0.486400	0.079700	0.021200
C2211	C221	0.990800	0.624500	0.002700
C2221	C222	0.996400	0.631500	0.943800
H2211	H221	0.966300	0.616800	0.926100
H2221	H222	0.027500	0.613600	0.931500
O2211	O221	0.991000	0.663900	0.029700
O2221	O222	0.986400	0.579700	0.021200
C2231	C223	0.990800	0.124500	0.502700
C2241	C224	0.996400	0.131500	0.443800
H2231	H223	0.966300	0.116800	0.426100
H2241	H224	0.027500	0.113600	0.431500
O2231	O223	0.991000	0.163900	0.529700
O2241	O224	0.986400	0.079700	0.521200
C2251	C225	0.747300	0.990800	0.125500
C2261	C226	0.806200	0.996400	0.118500
H2251	H225	0.823900	0.966300	0.133200
H2261	H226	0.818500	0.027500	0.136400
O2251	O225	0.720300	0.991000	0.086100
O2261	O226	0.728800	0.986400	0.170300
C2271	C227	0.747300	0.490800	0.625500
C2281	C228	0.806200	0.496400	0.618500
H2271	H227	0.823900	0.466300	0.633200
H2281	H228	0.818500	0.527500	0.636400
O2271	O227	0.720300	0.491000	0.586100
O2281	O228	0.728800	0.486400	0.670300
C2291	C229	0.247300	0.990800	0.625500
C2301	C230	0.306200	0.996400	0.618500
H2291	H229	0.323900	0.966300	0.633200
H2301	H230	0.318500	0.027500	0.636400
O2291	O229	0.220300	0.991000	0.586100
O2301	O230	0.228800	0.986400	0.670300
C2311	C231	0.247300	0.490800	0.125500
C2321	C232	0.306200	0.496400	0.118500
H2311	H231	0.323900	0.466300	0.133200
H2321	H232	0.318500	0.527500	0.136400
O2311	O231	0.220300	0.491000	0.086100
O2321	O232	0.228800	0.486400	0.170300
C2331	C233	0.247300	0.759200	0.124500
C2341	C234	0.306200	0.753600	0.131500
H2331	H233	0.323900	0.783700	0.116800
H2341	H234	0.318500	0.722500	0.113600
O2331	O233	0.220300	0.759000	0.163900
O2341	O234	0.228800	0.763600	0.079700
C2351	C235	0.247300	0.259200	0.624500
C2361	C236	0.306200	0.253600	0.631500
H2351	H235	0.323900	0.283700	0.616800
H2361	H236	0.318500	0.222500	0.613600
O2351	O235	0.220300	0.259000	0.663900
O2361	O236	0.228800	0.263600	0.579700
C2371	C237	0.747300	0.759200	0.624500
C2381	C238	0.806200	0.753600	0.631500
H2371	H237	0.823900	0.783700	0.616800
H2381	H238	0.818500	0.722500	0.613600
O2371	O237	0.720300	0.759000	0.663900
O2381	O238	0.728800	0.763600	0.579700
C2391	C239	0.747300	0.259200	0.124500
C2401	C240	0.806200	0.253600	0.131500
H2391	H239	0.823900	0.283700	0.116800
H2401	H240	0.818500	0.222500	0.113600
O2391	O239	0.720300	0.259000	0.163900
O2401	O240	0.728800	0.263600	0.079700
C2411	C241	0.002700	0.259200	0.625500
C2421	C242	0.943800	0.253600	0.618500
H2411	H241	0.926100	0.283700	0.633200
H2421	H242	0.931500	0.222500	0.636400
O2411	O241	0.029700	0.259000	0.586100
O2421	O242	0.021200	0.263600	0.670300
C2431	C243	0.002700	0.759200	0.125500
C2441	C244	0.943800	0.753600	0.118500
H2431	H243	0.926100	0.783700	0.133200
H2441	H244	0.931500	0.722500	0.136400
O2431	O243	0.029700	0.759000	0.086100
O2441	O244	0.021200	0.763600	0.170300
C2451	C245	0.502700	0.259200	0.125500
C2461	C246	0.443800	0.253600	0.118500
H2451	H245	0.426100	0.283700	0.133200
H2461	H246	0.431500	0.222500	0.136400
O2451	O245	0.529700	0.259000	0.086100
O2461	O246	0.521200	0.263600	0.170300
C2471	C247	0.502700	0.759200	0.625500
C2481	C248	0.443800	0.753600	0.618500
H2471	H247	0.426100	0.783700	0.633200
H2481	H248	0.431500	0.722500	0.636400
O2471	O247	0.529700	0.759000	0.586100
O2481	O248	0.521200	0.763600	0.670300
C2491	C249	0.502700	0.490800	0.624500
C2501	C250	0.443800	0.496400	0.631500
H2491	H249	0.426100	0.466300	0.616800
H2501	H250	0.431500	0.527500	0.613600
O2491	O249	0.529700	0.491000	0.663900
O2501	O250	0.521200	0.486400	0.579700
C2511	C251	0.502700	0.990800	0.124500
C2521	C252	0.443800	0.996400	0.131500
H2511	H251	0.426100	0.966300	0.116800
H2521	H252	0.431500	0.027500	0.113600
O2511	O251	0.529700	0.991000	0.163900
O2521	O252	0.521200	0.986400	0.079700
C2531	C253	0.002700	0.490800	0.124500
C2541	C254	0.943800	0.496400	0.131500
H2531	H253	0.926100	0.466300	0.116800
H2541	H254	0.931500	0.527500	0.113600
O2531	O253	0.029700	0.491000	0.163900
O2541	O254	0.021200	0.486400	0.079700
C2551	C255	0.002700	0.990800	0.624500
C2561	C256	0.943800	0.996400	0.631500
H2551	H255	0.926100	0.966300	0.616800
H2561	H256	0.931500	0.027500	0.613600
O2551	O255	0.029700	0.991000	0.663900
O2561	O256	0.021200	0.986400	0.579700
C2571	C257	0.125500	0.747300	0.990800
C2581	C258	0.118500	0.806200	0.996400
H2571	H257	0.133200	0.823900	0.966300
H2581	H258	0.136400	0.818500	0.027500
O2571	O257	0.086100	0.720300	0.991000
O2581	O258	0.170300	0.728800	0.986400
C2591	C259	0.125500	0.247300	0.490800
C2601	C260	0.118500	0.306200	0.496400
H2591	H259	0.133200	0.323900	0.466300
H2601	H260	0.136400	0.318500	0.527500
O2591	O259	0.086100	0.220300	0.491000
O2601	O260	0.170300	0.228800	0.486400
C2611	C261	0.625500	0.747300	0.490800
C2621	C262	0.618500	0.806200	0.496400
H2611	H261	0.633200	0.823900	0.466300
H2621	H262	0.636400	0.818500	0.527500
O2611	O261	0.586100	0.720300	0.491000
O2621	O262	0.670300	0.728800	0.486400
C2631	C263	0.625500	0.247300	0.990800
C2641	C264	0.618500	0.306200	0.996400
H2631	H263	0.633200	0.323900	0.966300
H2641	H264	0.636400	0.318500	0.027500
O2631	O263	0.586100	0.220300	0.991000
O2641	O264	0.670300	0.228800	0.986400
C2651	C265	0.124500	0.247300	0.759200
C2661	C266	0.131500	0.306200	0.753600
H2651	H265	0.116800	0.323900	0.783700
H2661	H266	0.113600	0.318500	0.722500
O2651	O265	0.163900	0.220300	0.759000
O2661	O266	0.079700	0.228800	0.763600
C2671	C267	0.124500	0.747300	0.259200
C2681	C268	0.131500	0.806200	0.253600
H2671	H267	0.116800	0.823900	0.283700
H2681	H268	0.113600	0.818500	0.222500
O2671	O267	0.163900	0.720300	0.259000
O2681	O268	0.079700	0.728800	0.263600
C2691	C269	0.624500	0.247300	0.259200
C2701	C270	0.631500	0.306200	0.253600
H2691	H269	0.616800	0.323900	0.283700
H2701	H270	0.613600	0.318500	0.222500
O2691	O269	0.663900	0.220300	0.259000
O2701	O270	0.579700	0.228800	0.263600
C2711	C271	0.624500	0.747300	0.759200
C2721	C272	0.631500	0.806200	0.753600
H2711	H271	0.616800	0.823900	0.783700
H2721	H272	0.613600	0.818500	0.722500
O2711	O271	0.663900	0.720300	0.759000
O2721	O272	0.579700	0.728800	0.763600
C2731	C273	0.625500	0.002700	0.259200
C2741	C274	0.618500	0.943800	0.253600
H2731	H273	0.633200	0.926100	0.283700
H2741	H274	0.636400	0.931500	0.222500
O2731	O273	0.586100	0.029700	0.259000
O2741	O274	0.670300	0.021200	0.263600
C2751	C275	0.625500	0.502700	0.759200
C2761	C276	0.618500	0.443800	0.753600
H2751	H275	0.633200	0.426100	0.783700
H2761	H276	0.636400	0.431500	0.722500
O2751	O275	0.586100	0.529700	0.759000
O2761	O276	0.670300	0.521200	0.763600
C2771	C277	0.125500	0.002700	0.759200
C2781	C278	0.118500	0.943800	0.753600
H2771	H277	0.133200	0.926100	0.783700
H2781	H278	0.136400	0.931500	0.722500
O2771	O277	0.086100	0.029700	0.759000
O2781	O278	0.170300	0.021200	0.763600
C2791	C279	0.125500	0.502700	0.259200
C2801	C280	0.118500	0.443800	0.253600
H2791	H279	0.133200	0.426100	0.283700
H2801	H280	0.136400	0.431500	0.222500
O2791	O279	0.086100	0.529700	0.259000
O2801	O280	0.170300	0.521200	0.263600
C2811	C281	0.624500	0.502700	0.490800
C2821	C282	0.631500	0.443800	0.496400
H2811	H281	0.616800	0.426100	0.466300
H2821	H282	0.613600	0.431500	0.527500
O2811	O281	0.663900	0.529700	0.491000
O2821	O282	0.579700	0.521200	0.486400
C2831	C283	0.624500	0.002700	0.990800
C2841	C284	0.631500	0.943800	0.996400
H2831	H283	0.616800	0.926100	0.966300
H2841	H284	0.613600	0.931500	0.027500
O2831	O283	0.663900	0.029700	0.991000
O2841	O284	0.579700	0.021200	0.986400
C2851	C285	0.124500	0.502700	0.990800
C2861	C286	0.131500	0.443800	0.996400
H2851	H285	0.116800	0.426100	0.966300
H2861	H286	0.113600	0.431500	0.027500
O2851	O285	0.163900	0.529700	0.991000
O2861	O286	0.079700	0.521200	0.986400
C2871	C287	0.124500	0.002700	0.490800
C2881	C288	0.131500	0.943800	0.496400
H2871	H287	0.116800	0.926100	0.466300
H2881	H288	0.113600	0.931500	0.527500
O2871	O287	0.163900	0.029700	0.491000
O2881	O288	0.079700	0.021200	0.486400
C2891	C289	0.375500	0.740800	0.252700
C2901	C290	0.368500	0.746400	0.193800
H2891	H289	0.383200	0.716300	0.176100
H2901	H290	0.386400	0.777500	0.181500
O2891	O289	0.336100	0.741000	0.279700
O2901	O290	0.420300	0.736400	0.271200
C2911	C291	0.375500	0.240800	0.752700
C2921	C292	0.368500	0.246400	0.693800
H2911	H291	0.383200	0.216300	0.676100
H2921	H292	0.386400	0.277500	0.681500
O2911	O291	0.336100	0.241000	0.779700
O2921	O292	0.420300	0.236400	0.771200
C2931	C293	0.875500	0.740800	0.752700
C2941	C294	0.868500	0.746400	0.693800
H2931	H293	0.883200	0.716300	0.676100
H2941	H294	0.886400	0.777500	0.681500
O2931	O293	0.836100	0.741000	0.779700
O2941	O294	0.920300	0.736400	0.771200
C2951	C295	0.875500	0.240800	0.252700
C2961	C296	0.868500	0.246400	0.193800
H2951	H295	0.883200	0.216300	0.176100
H2961	H296	0.886400	0.277500	0.181500
O2951	O295	0.836100	0.241000	0.279700
O2961	O296	0.920300	0.236400	0.271200
C2971	C297	0.374500	0.509200	0.752700
C2981	C298	0.381500	0.503600	0.693800
H2971	H297	0.366800	0.533700	0.676100
H2981	H298	0.363600	0.472500	0.681500
O2971	O297	0.413900	0.509000	0.779700
O2981	O298	0.329700	0.513600	0.771200
C2991	C299	0.374500	0.009200	0.252700
C3001	C300	0.381500	0.003600	0.193800
H2991	H299	0.366800	0.033700	0.176100
H3001	H300	0.363600	0.972500	0.181500
O2991	O299	0.413900	0.009000	0.279700
O3001	O300	0.329700	0.013600	0.271200
C3011	C301	0.874500	0.509200	0.252700
C3021	C302	0.881500	0.503600	0.193800
H3011	H301	0.866800	0.533700	0.176100
H3021	H302	0.863600	0.472500	0.181500
O3011	O301	0.913900	0.509000	0.279700
O3021	O302	0.829700	0.513600	0.271200
C3031	C303	0.874500	0.009200	0.752700
C3041	C304	0.881500	0.003600	0.693800
H3031	H303	0.866800	0.033700	0.676100
H3041	H304	0.863600	0.972500	0.681500
O3031	O303	0.913900	0.009000	0.779700
O3041	O304	0.829700	0.013600	0.771200
C3051	C305	0.875500	0.009200	0.997300
C3061	C306	0.868500	0.003600	0.056200
H3051	H305	0.883200	0.033700	0.073900
H3061	H306	0.886400	0.972500	0.068500
O3051	O305	0.836100	0.009000	0.970300
O3061	O306	0.920300	0.013600	0.978800
C3071	C307	0.875500	0.509200	0.497300
C3081	C308	0.868500	0.503600	0.556200
H3071	H307	0.883200	0.533700	0.573900
H3081	H308	0.886400	0.472500	0.568500
O3071	O307	0.836100	0.509000	0.470300
O3081	O308	0.920300	0.513600	0.478800
C3091	C309	0.375500	0.009200	0.497300
C3101	C310	0.368500	0.003600	0.556200
H3091	H309	0.383200	0.033700	0.573900
H3101	H310	0.386400	0.972500	0.568500
O3091	O309	0.336100	0.009000	0.470300
O3101	O310	0.420300	0.013600	0.478800
C3111	C311	0.375500	0.509200	0.997300
C3121	C312	0.368500	0.503600	0.056200
H3111	H311	0.383200	0.533700	0.073900
H3121	H312	0.386400	0.472500	0.068500
O3111	O311	0.336100	0.509000	0.970300
O3121	O312	0.420300	0.513600	0.978800
C3131	C313	0.874500	0.240800	0.497300
C3141	C314	0.881500	0.246400	0.556200
H3131	H313	0.866800	0.216300	0.573900
H3141	H314	0.863600	0.277500	0.568500
O3131	O313	0.913900	0.241000	0.470300
O3141	O314	0.829700	0.236400	0.478800
C3151	C315	0.874500	0.740800	0.997300
C3161	C316	0.881500	0.746400	0.056200
H3151	H315	0.866800	0.716300	0.073900
H3161	H316	0.863600	0.777500	0.068500
O3151	O315	0.913900	0.741000	0.970300
O3161	O316	0.829700	0.736400	0.978800
C3171	C317	0.374500	0.240800	0.997300
C3181	C318	0.381500	0.246400	0.056200
H3171	H317	0.366800	0.216300	0.073900
H3181	H318	0.363600	0.277500	0.068500
O3171	O317	0.413900	0.241000	0.970300
O3181	O318	0.329700	0.236400	0.978800
C3191	C319	0.374500	0.740800	0.497300
C3201	C320	0.381500	0.746400	0.556200
H3191	H319	0.366800	0.716300	0.573900
H3201	H320	0.363600	0.777500	0.568500
O3191	O319	0.413900	0.741000	0.470300
O3201	O320	0.329700	0.736400	0.478800
C3211	C321	0.240800	0.497300	0.874500
C3221	C322	0.246400	0.556200	0.881500
H3211	H321	0.216300	0.573900	0.866800
H3221	H322	0.277500	0.568500	0.863600
O3211	O321	0.241000	0.470300	0.913900
O3221	O322	0.236400	0.478800	0.829700
C3231	C323	0.240800	0.997300	0.374500
C3241	C324	0.246400	0.056200	0.381500
H3231	H323	0.216300	0.073900	0.366800
H3241	H324	0.277500	0.068500	0.363600
O3231	O323	0.241000	0.970300	0.413900
O3241	O324	0.236400	0.978800	0.329700
C3251	C325	0.740800	0.497300	0.374500
C3261	C326	0.746400	0.556200	0.381500
H3251	H325	0.716300	0.573900	0.366800
H3261	H326	0.777500	0.568500	0.363600
O3251	O325	0.741000	0.470300	0.413900
O3261	O326	0.736400	0.478800	0.329700
C3271	C327	0.740800	0.997300	0.874500
C3281	C328	0.746400	0.056200	0.881500
H3271	H327	0.716300	0.073900	0.866800
H3281	H328	0.777500	0.068500	0.863600
O3271	O327	0.741000	0.970300	0.913900
O3281	O328	0.736400	0.978800	0.829700
C3291	C329	0.009200	0.997300	0.875500
C3301	C330	0.003600	0.056200	0.868500
H3291	H329	0.033700	0.073900	0.883200
H3301	H330	0.972500	0.068500	0.886400
O3291	O329	0.009000	0.970300	0.836100
O3301	O330	0.013600	0.978800	0.920300
C3311	C331	0.009200	0.497300	0.375500
C3321	C332	0.003600	0.556200	0.368500
H3311	H331	0.033700	0.573900	0.383200
H3321	H332	0.972500	0.568500	0.386400
O3311	O331	0.009000	0.470300	0.336100
O3321	O332	0.013600	0.478800	0.420300
C3331	C333	0.509200	0.997300	0.375500
C3341	C334	0.503600	0.056200	0.368500
H3331	H333	0.533700	0.073900	0.383200
H3341	H334	0.472500	0.068500	0.386400
O3331	O333	0.509000	0.970300	0.336100
O3341	O334	0.513600	0.978800	0.420300
C3351	C335	0.509200	0.497300	0.875500
C3361	C336	0.503600	0.556200	0.868500
H3351	H335	0.533700	0.573900	0.883200
H3361	H336	0.472500	0.568500	0.886400
O3351	O335	0.509000	0.470300	0.836100
O3361	O336	0.513600	0.478800	0.920300
C3371	C337	0.509200	0.752700	0.374500
C3381	C338	0.503600	0.693800	0.381500
H3371	H337	0.533700	0.676100	0.366800
H3381	H338	0.472500	0.681500	0.363600
O3371	O337	0.509000	0.779700	0.413900
O3381	O338	0.513600	0.771200	0.329700
C3391	C339	0.509200	0.252700	0.874500
C3401	C340	0.503600	0.193800	0.881500
H3391	H339	0.533700	0.176100	0.866800
H3401	H340	0.472500	0.181500	0.863600
O3391	O339	0.509000	0.279700	0.913900
O3401	O340	0.513600	0.271200	0.829700
C3411	C341	0.009200	0.752700	0.874500
C3421	C342	0.003600	0.693800	0.881500
H3411	H341	0.033700	0.676100	0.866800
H3421	H342	0.972500	0.681500	0.863600
O3411	O341	0.009000	0.779700	0.913900
O3421	O342	0.013600	0.771200	0.829700
C3431	C343	0.009200	0.252700	0.374500
C3441	C344	0.003600	0.193800	0.381500
H3431	H343	0.033700	0.176100	0.366800
H3441	H344	0.972500	0.181500	0.363600
O3431	O343	0.009000	0.279700	0.413900
O3441	O344	0.013600	0.271200	0.329700
C3451	C345	0.740800	0.252700	0.375500
C3461	C346	0.746400	0.193800	0.368500
H3451	H345	0.716300	0.176100	0.383200
H3461	H346	0.777500	0.181500	0.386400
O3451	O345	0.741000	0.279700	0.336100
O3461	O346	0.736400	0.271200	0.420300
C3471	C347	0.740800	0.752700	0.875500
C3481	C348	0.746400	0.693800	0.868500
H3471	H347	0.716300	0.676100	0.883200
H3481	H348	0.777500	0.681500	0.886400
O3471	O347	0.741000	0.779700	0.836100
O3481	O348	0.736400	0.771200	0.920300
C3491	C349	0.240800	0.252700	0.875500
C3501	C350	0.246400	0.193800	0.868500
H3491	H349	0.216300	0.176100	0.883200
H3501	H350	0.277500	0.181500	0.886400
O3491	O349	0.241000	0.279700	0.836100
O3501	O350	0.236400	0.271200	0.920300
C3511	C351	0.240800	0.752700	0.375500
C3521	C352	0.246400	0.693800	0.368500
H3511	H351	0.216300	0.676100	0.383200
H3521	H352	0.277500	0.681500	0.386400
O3511	O351	0.241000	0.779700	0.336100
O3521	O352	0.236400	0.771200	0.420300
C3531	C353	0.997300	0.875500	0.009200
C3541	C354	0.056200	0.868500	0.003600
H3531	H353	0.073900	0.883200	0.033700
H3541	H354	0.068500	0.886400	0.972500
O3531	O353	0.970300	0.836100	0.009000
O3541	O354	0.978800	0.920300	0.013600
C3551	C355	0.997300	0.375500	0.509200
C3561	C356	0.056200	0.368500	0.503600
H3551	H355	0.073900	0.383200	0.533700
H3561	H356	0.068500	0.386400	0.472500
O3551	O355	0.970300	0.336100	0.509000
O3561	O356	0.978800	0.420300	0.513600
C3571	C357	0.497300	0.875500	0.509200
C3581	C358	0.556200	0.868500	0.503600
H3571	H357	0.573900	0.883200	0.533700
H3581	H358	0.568500	0.886400	0.472500
O3571	O357	0.470300	0.836100	0.509000
O3581	O358	0.478800	0.920300	0.513600
C3591	C359	0.497300	0.375500	0.009200
C3601	C360	0.556200	0.368500	0.003600
H3591	H359	0.573900	0.383200	0.033700
H3601	H360	0.568500	0.386400	0.972500
O3591	O359	0.470300	0.336100	0.009000
O3601	O360	0.478800	0.420300	0.013600
C3611	C361	0.497300	0.874500	0.240800
C3621	C362	0.556200	0.881500	0.246400
H3611	H361	0.573900	0.866800	0.216300
H3621	H362	0.568500	0.863600	0.277500
O3611	O361	0.470300	0.913900	0.241000
O3621	O362	0.478800	0.829700	0.236400
C3631	C363	0.497300	0.374500	0.740800
C3641	C364	0.556200	0.381500	0.746400
H3631	H363	0.573900	0.366800	0.716300
H3641	H364	0.568500	0.363600	0.777500
O3631	O363	0.470300	0.413900	0.741000
O3641	O364	0.478800	0.329700	0.736400
C3651	C365	0.997300	0.874500	0.740800
C3661	C366	0.056200	0.881500	0.746400
H3651	H365	0.073900	0.866800	0.716300
H3661	H366	0.068500	0.863600	0.777500
O3651	O365	0.970300	0.913900	0.741000
O3661	O366	0.978800	0.829700	0.736400
C3671	C367	0.997300	0.374500	0.240800
C3681	C368	0.056200	0.381500	0.246400
H3671	H367	0.073900	0.366800	0.216300
H3681	H368	0.068500	0.363600	0.277500
O3671	O367	0.970300	0.413900	0.241000
O3681	O368	0.978800	0.329700	0.236400
C3691	C369	0.252700	0.375500	0.740800
C3701	C370	0.193800	0.368500	0.746400
H3691	H369	0.176100	0.383200	0.716300
H3701	H370	0.181500	0.386400	0.777500
O3691	O369	0.279700	0.336100	0.741000
O3701	O370	0.271200	0.420300	0.736400
C3711	C371	0.252700	0.875500	0.240800
C3721	C372	0.193800	0.868500	0.246400
H3711	H371	0.176100	0.883200	0.216300
H3721	H372	0.181500	0.886400	0.277500
O3711	O371	0.279700	0.836100	0.241000
O3721	O372	0.271200	0.920300	0.236400
C3731	C373	0.752700	0.375500	0.240800
C3741	C374	0.693800	0.368500	0.246400
H3731	H373	0.676100	0.383200	0.216300
H3741	H374	0.681500	0.386400	0.277500
O3731	O373	0.779700	0.336100	0.241000
O3741	O374	0.771200	0.420300	0.236400
C3751	C375	0.752700	0.875500	0.740800
C3761	C376	0.693800	0.868500	0.746400
H3751	H375	0.676100	0.883200	0.716300
H3761	H376	0.681500	0.886400	0.777500
O3751	O375	0.779700	0.836100	0.741000
O3761	O376	0.771200	0.920300	0.736400
C3771	C377	0.752700	0.374500	0.509200
C3781	C378	0.693800	0.381500	0.503600
H3771	H377	0.676100	0.366800	0.533700
H3781	H378	0.681500	0.363600	0.472500
O3771	O377	0.779700	0.413900	0.509000
O3781	O378	0.771200	0.329700	0.513600
C3791	C379	0.752700	0.874500	0.009200
C3801	C380	0.693800	0.881500	0.003600
H3791	H379	0.676100	0.866800	0.033700
H3801	H380	0.681500	0.863600	0.972500
O3791	O379	0.779700	0.913900	0.009000
O3801	O380	0.771200	0.829700	0.013600
C3811	C381	0.252700	0.374500	0.009200
C3821	C382	0.193800	0.381500	0.003600
H3811	H381	0.176100	0.366800	0.033700
H3821	H382	0.181500	0.363600	0.972500
O3811	O381	0.279700	0.413900	0.009000
O3821	O382	0.271200	0.329700	0.013600
C3831	C383	0.252700	0.874500	0.509200
C3841	C384	0.193800	0.881500	0.503600
H3831	H383	0.176100	0.866800	0.533700
H3841	H384	0.181500	0.863600	0.472500
O3831	O383	0.279700	0.913900	0.509000
O3841	O384	0.271200	0.829700	0.513600
Gd11	Gd1	0.000000	0.000000	0.250000
Gd21	Gd2	0.000000	0.500000	0.750000
Gd31	Gd3	0.250000	0.750000	0.750000
Gd41	Gd4	0.250000	0.250000	0.250000
Gd51	Gd5	0.750000	0.500000	0.000000
Gd61	Gd6	0.750000	0.000000	0.500000
Gd71	Gd7	0.500000	0.250000	0.500000
Gd81	Gd8	0.500000	0.750000	0.000000
Gd91	Gd9	0.250000	0.000000	0.000000
Gd101	Gd10	0.750000	0.250000	0.750000
Gd111	Gd11	0.000000	0.750000	0.500000
Gd121	Gd12	0.500000	0.500000	0.250000
Gd131	Gd13	0.000000	0.250000	0.000000
Gd141	Gd14	0.750000	0.750000	0.250000
Gd151	Gd15	0.500000	0.000000	0.750000
Gd161	Gd16	0.250000	0.500000	0.500000
Gd171	Gd17	0.000000	0.000000	0.750000
Gd181	Gd18	0.000000	0.500000	0.250000
Gd191	Gd19	0.750000	0.250000	0.250000
Gd201	Gd20	0.750000	0.750000	0.750000
Gd211	Gd21	0.250000	0.500000	0.000000
Gd221	Gd22	0.250000	0.000000	0.500000
Gd231	Gd23	0.500000	0.750000	0.500000
Gd241	Gd24	0.500000	0.250000	0.000000
Gd251	Gd25	0.750000	0.000000	0.000000
Gd261	Gd26	0.250000	0.750000	0.250000
Gd271	Gd27	0.000000	0.250000	0.500000
Gd281	Gd28	0.500000	0.500000	0.750000
Gd291	Gd29	0.000000	0.750000	0.000000
Gd301	Gd30	0.250000	0.250000	0.750000
Gd311	Gd31	0.500000	0.000000	0.250000
Gd321	Gd32	0.750000	0.500000	0.500000
Mn11	Mn1	0.000000	0.750000	0.250000
Mn21	Mn2	0.500000	0.750000	0.750000
Mn31	Mn3	0.250000	0.000000	0.750000
Mn41	Mn4	0.250000	0.500000	0.250000
Mn51	Mn5	0.750000	0.250000	0.000000
Mn61	Mn6	0.750000	0.750000	0.500000
Mn71	Mn7	0.500000	0.500000	0.500000
Mn81	Mn8	0.500000	0.000000	0.000000
Mn91	Mn9	0.000000	0.500000	0.000000
Mn101	Mn10	0.000000	0.000000	0.500000
Mn111	Mn11	0.250000	0.250000	0.500000
Mn121	Mn12	0.500000	0.250000	0.750000
Mn131	Mn13	0.000000	0.250000	0.250000
Mn141	Mn14	0.750000	0.500000	0.250000
Mn151	Mn15	0.750000	0.000000	0.750000
Mn161	Mn16	0.000000	0.000000	0.000000
Mn171	Mn17	0.000000	0.500000	0.500000
Mn181	Mn18	0.500000	0.000000	0.500000
Mn191	Mn19	0.500000	0.500000	0.000000
Mn201	Mn20	0.250000	0.750000	0.500000
Mn211	Mn21	0.250000	0.250000	0.000000
Mn221	Mn22	0.000000	0.250000	0.750000
Mn231	Mn23	0.500000	0.250000	0.250000
Mn241	Mn24	0.750000	0.000000	0.250000
Mn251	Mn25	0.750000	0.500000	0.750000
Mn261	Mn26	0.250000	0.750000	0.000000
Mn271	Mn27	0.500000	0.750000	0.250000
Mn281	Mn28	0.000000	0.750000	0.750000
Mn291	Mn29	0.250000	0.500000	0.750000
Mn301	Mn30	0.250000	0.000000	0.250000
Mn311	Mn31	0.750000	0.250000	0.500000
Mn321	Mn32	0.750000	0.750000	0.000000
O3851	O385	0.000000	0.933600	0.183600
O3861	O386	0.000000	0.433600	0.683600
O3871	O387	0.500000	0.933600	0.683600
O3881	O388	0.500000	0.433600	0.183600
O3891	O389	0.250000	0.816400	0.683600
O3901	O390	0.250000	0.316400	0.183600
O3911	O391	0.750000	0.816400	0.183600
O3921	O392	0.750000	0.316400	0.683600
O3931	O393	0.750000	0.433600	0.066400
O3941	O394	0.750000	0.933600	0.566400
O3951	O395	0.250000	0.433600	0.566400
O3961	O396	0.250000	0.933600	0.066400
O3971	O397	0.500000	0.316400	0.566400
O3981	O398	0.500000	0.816400	0.066400
O3991	O399	0.000000	0.316400	0.066400
O4001	O400	0.000000	0.816400	0.566400
O4011	O401	0.183600	0.000000	0.933600
O4021	O402	0.183600	0.500000	0.433600
O4031	O403	0.683600	0.000000	0.433600
O4041	O404	0.683600	0.500000	0.933600
O4051	O405	0.683600	0.250000	0.816400
O4061	O406	0.683600	0.750000	0.316400
O4071	O407	0.183600	0.250000	0.316400
O4081	O408	0.183600	0.750000	0.816400
O4091	O409	0.066400	0.750000	0.433600
O4101	O410	0.066400	0.250000	0.933600
O4111	O411	0.566400	0.750000	0.933600
O4121	O412	0.566400	0.250000	0.433600
O4131	O413	0.566400	0.500000	0.316400
O4141	O414	0.566400	0.000000	0.816400
O4151	O415	0.066400	0.500000	0.816400
O4161	O416	0.066400	0.000000	0.316400
O4171	O417	0.933600	0.183600	0.000000
O4181	O418	0.933600	0.683600	0.500000
O4191	O419	0.433600	0.183600	0.500000
O4201	O420	0.433600	0.683600	0.000000
O4211	O421	0.816400	0.683600	0.250000
O4221	O422	0.816400	0.183600	0.750000
O4231	O423	0.316400	0.683600	0.750000
O4241	O424	0.316400	0.183600	0.250000
O4251	O425	0.433600	0.066400	0.750000
O4261	O426	0.433600	0.566400	0.250000
O4271	O427	0.933600	0.066400	0.250000
O4281	O428	0.933600	0.566400	0.750000
O4291	O429	0.316400	0.566400	0.500000
O4301	O430	0.316400	0.066400	0.000000
O4311	O431	0.816400	0.566400	0.000000
O4321	O432	0.816400	0.066400	0.500000
O4331	O433	0.000000	0.066400	0.816400
O4341	O434	0.000000	0.566400	0.316400
O4351	O435	0.500000	0.066400	0.316400
O4361	O436	0.500000	0.566400	0.816400
O4371	O437	0.750000	0.183600	0.316400
O4381	O438	0.750000	0.683600	0.816400
O4391	O439	0.250000	0.183600	0.816400
O4401	O440	0.250000	0.683600	0.316400
O4411	O441	0.250000	0.566400	0.933600
O4421	O442	0.250000	0.066400	0.433600
O4431	O443	0.750000	0.566400	0.433600
O4441	O444	0.750000	0.066400	0.933600
O4451	O445	0.500000	0.683600	0.433600
O4461	O446	0.500000	0.183600	0.933600
O4471	O447	0.000000	0.683600	0.933600
O4481	O448	0.000000	0.183600	0.433600
O4491	O449	0.816400	0.000000	0.066400
O4501	O450	0.816400	0.500000	0.566400
O4511	O451	0.316400	0.000000	0.566400
O4521	O452	0.316400	0.500000	0.066400
O4531	O453	0.316400	0.750000	0.183600
O4541	O454	0.316400	0.250000	0.683600
O4551	O455	0.816400	0.750000	0.683600
O4561	O456	0.816400	0.250000	0.183600
O4571	O457	0.933600	0.250000	0.566400
O4581	O458	0.933600	0.750000	0.066400
O4591	O459	0.433600	0.250000	0.066400
O4601	O460	0.433600	0.750000	0.566400
O4611	O461	0.433600	0.500000	0.683600
O4621	O462	0.433600	0.000000	0.183600
O4631	O463	0.933600	0.500000	0.183600
O4641	O464	0.933600	0.000000	0.683600
O4651	O465	0.066400	0.816400	0.000000
O4661	O466	0.066400	0.316400	0.500000
O4671	O467	0.566400	0.816400	0.500000
O4681	O468	0.566400	0.316400	0.000000
O4691	O469	0.183600	0.316400	0.750000
O4701	O470	0.183600	0.816400	0.250000
O4711	O471	0.683600	0.316400	0.250000
O4721	O472	0.683600	0.816400	0.750000
O4731	O473	0.566400	0.933600	0.250000
O4741	O474	0.566400	0.433600	0.750000
O4751	O475	0.066400	0.933600	0.750000
O4761	O476	0.066400	0.433600	0.250000
O4771	O477	0.683600	0.433600	0.500000
O4781	O478	0.683600	0.933600	0.000000
O4791	O479	0.183600	0.433600	0.000000
O4801	O480	0.183600	0.933600	0.500000
