data_YIBMON01_clean_PM
_symmetry_space_group_name_H-M	'P1'
_cell_length_a	13.656000
_cell_length_b	16.807000
_cell_length_c	8.237000
_cell_angle_alpha	90.000000
_cell_angle_beta	99.089000
_cell_angle_gamma	90.000000
_symmetry_Int_Tables_number 1

loop_
_symmetry_equiv_pos_as_xyz
'x,y,z'

loop_
_atom_site_label
_atom_site_type_symbol
_atom_site_fract_x
_atom_site_fract_y
_atom_site_fract_z
Zn11	Zn1	0.863310	0.022890	0.871410
O11	O1	0.180700	0.427500	0.752100
O21	O2	0.958000	0.103600	0.821600
O31	O3	0.082500	0.021340	0.906100
O41	O4	0.742800	0.068300	0.937100
O51	O5	0.736000	0.129500	0.696900
C11	C1	0.155700	0.291900	0.803500
C21	C2	0.089000	0.231700	0.821500
H11	H1	0.022200	0.243600	0.818400
C31	C3	0.121400	0.153700	0.844100
C41	C4	0.222000	0.136600	0.853200
H21	H2	0.244000	0.084600	0.872800
C51	C5	0.289700	0.196000	0.833600
C61	C6	0.255500	0.274200	0.808700
H31	H3	0.300000	0.314600	0.795400
C71	C7	0.395900	0.176800	0.835600
C81	C8	0.450500	0.215000	0.730200
H41	H4	0.420900	0.254900	0.661200
C91	C9	0.548500	0.194500	0.726100
H51	H5	0.582900	0.219300	0.651300
C101	C10	0.595300	0.137900	0.832100
C111	C11	0.543400	0.102100	0.942800
H61	H6	0.575200	0.065300	0.017400
C121	C12	0.443500	0.120400	0.944500
H71	H7	0.408900	0.094800	0.018200
C131	C13	0.120000	0.376700	0.780500
C141	C14	0.050200	0.087800	0.862300
C151	C15	0.698900	0.111600	0.819000
O61	O6	0.033800	0.391300	0.786200
Zn21	Zn2	0.136690	0.522890	0.628590
O71	O7	0.819300	0.927500	0.747900
O81	O8	0.042000	0.603600	0.678400
O91	O9	0.917500	0.521340	0.593900
O101	O10	0.257200	0.568300	0.562900
O111	O11	0.264000	0.629500	0.803100
C161	C16	0.844300	0.791900	0.696500
C171	C17	0.911000	0.731700	0.678500
H81	H8	0.977800	0.743600	0.681600
C181	C18	0.878600	0.653700	0.655900
C191	C19	0.778000	0.636600	0.646800
H91	H9	0.756000	0.584600	0.627200
C201	C20	0.710300	0.696000	0.666400
C211	C21	0.744500	0.774200	0.691300
H101	H10	0.700000	0.814600	0.704600
C221	C22	0.604100	0.676800	0.664400
C231	C23	0.549500	0.715000	0.769800
H111	H11	0.579100	0.754900	0.838800
C241	C24	0.451500	0.694500	0.773900
H121	H12	0.417100	0.719300	0.848700
C251	C25	0.404700	0.637900	0.667900
C261	C26	0.456600	0.602100	0.557200
H131	H13	0.424800	0.565300	0.482600
C271	C27	0.556500	0.620400	0.555500
H141	H14	0.591100	0.594800	0.481800
C281	C28	0.880000	0.876700	0.719500
C291	C29	0.949800	0.587800	0.637700
C301	C30	0.301100	0.611600	0.681000
O121	O12	0.966200	0.891300	0.713800
Zn31	Zn3	0.136690	0.977110	0.128590
O131	O13	0.819300	0.572500	0.247900
O141	O14	0.042000	0.896400	0.178400
O151	O15	0.917500	0.978660	0.093900
O161	O16	0.257200	0.931700	0.062900
O171	O17	0.264000	0.870500	0.303100
C311	C31	0.844300	0.708100	0.196500
C321	C32	0.911000	0.768300	0.178500
H151	H15	0.977800	0.756400	0.181600
C331	C33	0.878600	0.846300	0.155900
C341	C34	0.778000	0.863400	0.146800
H161	H16	0.756000	0.915400	0.127200
C351	C35	0.710300	0.804000	0.166400
C361	C36	0.744500	0.725800	0.191300
H171	H17	0.700000	0.685400	0.204600
C371	C37	0.604100	0.823200	0.164400
C381	C38	0.549500	0.785000	0.269800
H181	H18	0.579100	0.745100	0.338800
C391	C39	0.451500	0.805500	0.273900
H191	H19	0.417100	0.780700	0.348700
C401	C40	0.404700	0.862100	0.167900
C411	C41	0.456600	0.897900	0.057200
H201	H20	0.424800	0.934700	0.982600
C421	C42	0.556500	0.879600	0.055500
H211	H21	0.591100	0.905200	0.981800
C431	C43	0.880000	0.623300	0.219500
C441	C44	0.949800	0.912200	0.137700
C451	C45	0.301100	0.888400	0.181000
O181	O18	0.966200	0.608700	0.213800
Zn41	Zn4	0.863310	0.477110	0.371410
O191	O19	0.180700	0.072500	0.252100
O201	O20	0.958000	0.396400	0.321600
O211	O21	0.082500	0.478660	0.406100
O221	O22	0.742800	0.431700	0.437100
O231	O23	0.736000	0.370500	0.196900
C461	C46	0.155700	0.208100	0.303500
C471	C47	0.089000	0.268300	0.321500
H221	H22	0.022200	0.256400	0.318400
C481	C48	0.121400	0.346300	0.344100
C491	C49	0.222000	0.363400	0.353200
H231	H23	0.244000	0.415400	0.372800
C501	C50	0.289700	0.304000	0.333600
C511	C51	0.255500	0.225800	0.308700
H241	H24	0.300000	0.185400	0.295400
C521	C52	0.395900	0.323200	0.335600
C531	C53	0.450500	0.285000	0.230200
H251	H25	0.420900	0.245100	0.161200
C541	C54	0.548500	0.305500	0.226100
H261	H26	0.582900	0.280700	0.151300
C551	C55	0.595300	0.362100	0.332100
C561	C56	0.543400	0.397900	0.442800
H271	H27	0.575200	0.434700	0.517400
C571	C57	0.443500	0.379600	0.444500
H281	H28	0.408900	0.405200	0.518200
C581	C58	0.120000	0.123300	0.280500
C591	C59	0.050200	0.412200	0.362300
C601	C60	0.698900	0.388400	0.319000
O241	O24	0.033800	0.108700	0.286200
