data_YIBMUT_clean_PM
_symmetry_space_group_name_H-M	'P1'
_cell_length_a	13.941100
_cell_length_b	17.081700
_cell_length_c	7.668000
_cell_angle_alpha	90.000000
_cell_angle_beta	91.974000
_cell_angle_gamma	90.000000
_symmetry_Int_Tables_number 1

loop_
_symmetry_equiv_pos_as_xyz
'x,y,z'

loop_
_atom_site_label
_atom_site_type_symbol
_atom_site_fract_x
_atom_site_fract_y
_atom_site_fract_z
Cd11	Cd1	0.126740	0.522020	0.358930
O11	O1	0.086200	0.471600	0.624700
O21	O2	0.976900	0.381700	0.673200
O31	O3	0.073300	0.102400	0.750200
O41	O4	0.223700	0.070600	0.731400
O51	O5	0.759600	0.382000	0.711300
O61	O6	0.726200	0.443600	0.466700
C11	C1	0.063900	0.402300	0.651100
C21	C2	0.160100	0.120800	0.720500
C31	C3	0.138800	0.340200	0.654200
C41	C4	0.113900	0.261900	0.680500
H11	H1	0.050000	0.248400	0.694500
C51	C5	0.184600	0.203900	0.685800
C61	C6	0.279500	0.225200	0.662700
H21	H2	0.326600	0.186600	0.663600
C71	C7	0.305900	0.303200	0.638200
C81	C8	0.233800	0.359700	0.634200
H31	H3	0.250200	0.411800	0.617700
C91	C9	0.701400	0.400400	0.587100
C101	C10	0.601100	0.370700	0.593200
C111	C11	0.529500	0.405400	0.491300
H41	H4	0.546200	0.444600	0.413800
C121	C12	0.433600	0.384200	0.500000
H51	H5	0.386700	0.408500	0.429800
C131	C13	0.409300	0.324800	0.618100
C141	C14	0.480900	0.287300	0.716600
H61	H6	0.465100	0.246100	0.789500
C151	C15	0.575500	0.310800	0.707000
H71	H7	0.622500	0.286600	0.776900
Cd21	Cd2	0.873260	0.022020	0.141070
O71	O7	0.913800	0.971600	0.875300
O81	O8	0.023100	0.881700	0.826800
O91	O9	0.926700	0.602400	0.749800
O101	O10	0.776300	0.570600	0.768600
O111	O11	0.240400	0.882000	0.788700
O121	O12	0.273800	0.943600	0.033300
C161	C16	0.936100	0.902300	0.848900
C171	C17	0.839900	0.620800	0.779500
C181	C18	0.861200	0.840200	0.845800
C191	C19	0.886100	0.761900	0.819500
H81	H8	0.950000	0.748400	0.805500
C201	C20	0.815400	0.703900	0.814200
C211	C21	0.720500	0.725200	0.837300
H91	H9	0.673400	0.686600	0.836400
C221	C22	0.694100	0.803200	0.861800
C231	C23	0.766200	0.859700	0.865800
H101	H10	0.749800	0.911800	0.882300
C241	C24	0.298600	0.900400	0.912900
C251	C25	0.398900	0.870700	0.906800
C261	C26	0.470500	0.905400	0.008700
H111	H11	0.453800	0.944600	0.086200
C271	C27	0.566400	0.884200	0.000000
H121	H12	0.613300	0.908500	0.070200
C281	C28	0.590700	0.824800	0.881900
C291	C29	0.519100	0.787300	0.783400
H131	H13	0.534900	0.746100	0.710500
C301	C30	0.424500	0.810800	0.793000
H141	H14	0.377500	0.786600	0.723100
Cd31	Cd3	0.873260	0.477980	0.641070
O131	O13	0.913800	0.528400	0.375300
O141	O14	0.023100	0.618300	0.326800
O151	O15	0.926700	0.897600	0.249800
O161	O16	0.776300	0.929400	0.268600
O171	O17	0.240400	0.618000	0.288700
O181	O18	0.273800	0.556400	0.533300
C311	C31	0.936100	0.597700	0.348900
C321	C32	0.839900	0.879200	0.279500
C331	C33	0.861200	0.659800	0.345800
C341	C34	0.886100	0.738100	0.319500
H151	H15	0.950000	0.751600	0.305500
C351	C35	0.815400	0.796100	0.314200
C361	C36	0.720500	0.774800	0.337300
H161	H16	0.673400	0.813400	0.336400
C371	C37	0.694100	0.696800	0.361800
C381	C38	0.766200	0.640300	0.365800
H171	H17	0.749800	0.588200	0.382300
C391	C39	0.298600	0.599600	0.412900
C401	C40	0.398900	0.629300	0.406800
C411	C41	0.470500	0.594600	0.508700
H181	H18	0.453800	0.555400	0.586200
C421	C42	0.566400	0.615800	0.500000
H191	H19	0.613300	0.591500	0.570200
C431	C43	0.590700	0.675200	0.381900
C441	C44	0.519100	0.712700	0.283400
H201	H20	0.534900	0.753900	0.210500
C451	C45	0.424500	0.689200	0.293000
H211	H21	0.377500	0.713400	0.223100
Cd41	Cd4	0.126740	0.977980	0.858930
O191	O19	0.086200	0.028400	0.124700
O201	O20	0.976900	0.118300	0.173200
O211	O21	0.073300	0.397600	0.250200
O221	O22	0.223700	0.429400	0.231400
O231	O23	0.759600	0.118000	0.211300
O241	O24	0.726200	0.056400	0.966700
C461	C46	0.063900	0.097700	0.151100
C471	C47	0.160100	0.379200	0.220500
C481	C48	0.138800	0.159800	0.154200
C491	C49	0.113900	0.238100	0.180500
H221	H22	0.050000	0.251600	0.194500
C501	C50	0.184600	0.296100	0.185800
C511	C51	0.279500	0.274800	0.162700
H231	H23	0.326600	0.313400	0.163600
C521	C52	0.305900	0.196800	0.138200
C531	C53	0.233800	0.140300	0.134200
H241	H24	0.250200	0.088200	0.117700
C541	C54	0.701400	0.099600	0.087100
C551	C55	0.601100	0.129300	0.093200
C561	C56	0.529500	0.094600	0.991300
H251	H25	0.546200	0.055400	0.913800
C571	C57	0.433600	0.115800	0.000000
H261	H26	0.386700	0.091500	0.929800
C581	C58	0.409300	0.175200	0.118100
C591	C59	0.480900	0.212700	0.216600
H271	H27	0.465100	0.253900	0.289500
C601	C60	0.575500	0.189200	0.207000
H281	H28	0.622500	0.213400	0.276900
