data_YIGFIF_clean_PM
_symmetry_space_group_name_H-M	'P1'
_cell_length_a	8.160000
_cell_length_b	10.715000
_cell_length_c	22.912000
_cell_angle_alpha	90.000000
_cell_angle_beta	90.000000
_cell_angle_gamma	102.583000
_symmetry_Int_Tables_number 1

loop_
_symmetry_equiv_pos_as_xyz
'x,y,z'

loop_
_atom_site_label
_atom_site_type_symbol
_atom_site_fract_x
_atom_site_fract_y
_atom_site_fract_z
Na11	Na1	0.542300	0.516100	0.572740
Na21	Na2	0.457700	0.483900	0.072740
Na31	Na3	0.457700	0.483900	0.427260
Na41	Na4	0.542300	0.516100	0.927260
Mo11	Mo1	0.878240	0.761220	0.670810
Mo21	Mo2	0.154150	0.995200	0.599750
Mo31	Mo3	0.426510	0.248340	0.676500
Mo41	Mo4	0.121760	0.238780	0.170810
Mo51	Mo5	0.845850	0.004800	0.099750
Mo61	Mo6	0.573490	0.751660	0.176500
Mo71	Mo7	0.121760	0.238780	0.329190
Mo81	Mo8	0.845850	0.004800	0.400250
Mo91	Mo9	0.573490	0.751660	0.323500
Mo101	Mo10	0.878240	0.761220	0.829190
Mo111	Mo11	0.154150	0.995200	0.900250
Mo121	Mo12	0.426510	0.248340	0.823500
P11	P1	0.260400	0.699410	0.630520
P21	P2	0.739600	0.300590	0.130520
P31	P3	0.739600	0.300590	0.369480
P41	P4	0.260400	0.699410	0.869480
P51	P5	0.210500	0.969200	0.750000
P61	P6	0.789500	0.030800	0.250000
H11	H1	0.376700	0.592200	0.703000
H21	H2	0.498800	0.723300	0.689400
H31	H3	0.468800	0.906700	0.785200
H41	H4	0.623300	0.407800	0.203000
H51	H5	0.501200	0.276700	0.189400
H61	H6	0.531200	0.093300	0.285200
H71	H7	0.623300	0.407800	0.297000
H81	H8	0.501200	0.276700	0.310600
H91	H9	0.531200	0.093300	0.214800
H101	H10	0.376700	0.592200	0.797000
H111	H11	0.498800	0.723300	0.810600
H121	H12	0.468800	0.906700	0.714800
C11	C1	0.382200	0.682300	0.696200
C21	C2	0.617800	0.317700	0.196200
C31	C3	0.617800	0.317700	0.303800
C41	C4	0.382200	0.682300	0.803800
C51	C5	0.379900	0.885200	0.750000
C61	C6	0.710700	0.142600	0.750000
C71	C7	0.891900	0.137400	0.750000
C81	C8	0.620100	0.114800	0.250000
C91	C9	0.289300	0.857400	0.250000
C101	C10	0.108100	0.862600	0.250000
N11	N1	0.321600	0.739300	0.750000
N21	N2	0.678400	0.260700	0.250000
O11	O1	0.739200	0.632100	0.644100
O21	O2	0.968600	0.846500	0.599200
O31	O3	0.107000	0.929000	0.695100
O41	O4	0.081300	0.662700	0.654100
O51	O5	0.356500	0.094500	0.633100
O61	O6	0.303500	0.836900	0.608700
O71	O7	0.571900	0.338200	0.630500
O81	O8	0.637300	0.147900	0.701200
O91	O9	0.302300	0.603200	0.588100
O101	O10	0.398300	0.345500	0.508600
O111	O11	0.260800	0.367900	0.144100
O121	O12	0.031400	0.153500	0.099200
O131	O13	0.893000	0.071000	0.195100
O141	O14	0.918700	0.337300	0.154100
O151	O15	0.643500	0.905500	0.133100
O161	O16	0.696500	0.163100	0.108700
O171	O17	0.428100	0.661800	0.130500
O181	O18	0.362700	0.852100	0.201200
O191	O19	0.697700	0.396800	0.088100
O201	O20	0.601700	0.654500	0.008600
O211	O21	0.260800	0.367900	0.355900
O221	O22	0.031400	0.153500	0.400800
O231	O23	0.893000	0.071000	0.304900
O241	O24	0.918700	0.337300	0.345900
O251	O25	0.643500	0.905500	0.366900
O261	O26	0.696500	0.163100	0.391300
O271	O27	0.428100	0.661800	0.369500
O281	O28	0.362700	0.852100	0.298800
O291	O29	0.697700	0.396800	0.411900
O301	O30	0.601700	0.654500	0.491400
O311	O31	0.739200	0.632100	0.855900
O321	O32	0.968600	0.846500	0.900800
O331	O33	0.107000	0.929000	0.804900
O341	O34	0.081300	0.662700	0.845900
O351	O35	0.356500	0.094500	0.866900
O361	O36	0.303500	0.836900	0.891300
O371	O37	0.571900	0.338200	0.869500
O381	O38	0.637300	0.147900	0.798800
O391	O39	0.302300	0.603200	0.911900
O401	O40	0.398300	0.345500	0.991400
O411	O41	0.916400	0.711600	0.750000
O421	O42	0.500500	0.330700	0.750000
O431	O43	0.294200	0.112400	0.750000
O441	O44	0.083600	0.288400	0.250000
O451	O45	0.499500	0.669300	0.250000
O461	O46	0.705800	0.887600	0.250000
