data_YIKJOT_clean_PM
_symmetry_space_group_name_H-M	'P1'
_cell_length_a	35.262700
_cell_length_b	35.262700
_cell_length_c	35.262700
_cell_angle_alpha	60.000000
_cell_angle_beta	60.000000
_cell_angle_gamma	60.000000
_symmetry_Int_Tables_number 1

loop_
_symmetry_equiv_pos_as_xyz
'x,y,z'

loop_
_atom_site_label
_atom_site_type_symbol
_atom_site_fract_x
_atom_site_fract_y
_atom_site_fract_z
Ag11	Ag1	0.069070	0.883060	0.314980
Ag21	Ag2	0.008310	0.816990	0.434910
Ag31	Ag3	0.383060	0.569070	0.732890
Ag41	Ag4	0.316990	0.508310	0.739790
Ag51	Ag5	0.814980	0.732890	0.569070
Ag61	Ag6	0.934910	0.739790	0.508310
Ag71	Ag7	0.232890	0.314980	0.883060
Ag81	Ag8	0.239790	0.434910	0.816990
Ag91	Ag9	0.069070	0.314980	0.732890
Ag101	Ag10	0.008310	0.434910	0.739790
Ag111	Ag11	0.383060	0.732890	0.314980
Ag121	Ag12	0.316990	0.739790	0.434910
Ag131	Ag13	0.814980	0.569070	0.883060
Ag141	Ag14	0.934910	0.508310	0.816990
Ag151	Ag15	0.232890	0.883060	0.569070
Ag161	Ag16	0.239790	0.816990	0.508310
Ag171	Ag17	0.069070	0.732890	0.883060
Ag181	Ag18	0.008310	0.739790	0.816990
Ag191	Ag19	0.383060	0.314980	0.569070
Ag201	Ag20	0.316990	0.434910	0.508310
Ag211	Ag21	0.814980	0.883060	0.732890
Ag221	Ag22	0.934910	0.816990	0.739790
Ag231	Ag23	0.232890	0.569070	0.314980
Ag241	Ag24	0.239790	0.508310	0.434910
Ag251	Ag25	0.116940	0.930930	0.185020
Ag261	Ag26	0.183010	0.991690	0.065090
Ag271	Ag27	0.430930	0.616940	0.767110
Ag281	Ag28	0.491690	0.683010	0.760210
Ag291	Ag29	0.267110	0.185020	0.930930
Ag301	Ag30	0.260210	0.065090	0.991690
Ag311	Ag31	0.685020	0.767110	0.616940
Ag321	Ag32	0.565090	0.760210	0.683010
Ag331	Ag33	0.685020	0.930930	0.767110
Ag341	Ag34	0.565090	0.991690	0.760210
Ag351	Ag35	0.267110	0.616940	0.185020
Ag361	Ag36	0.260210	0.683010	0.065090
Ag371	Ag37	0.430930	0.185020	0.616940
Ag381	Ag38	0.491690	0.065090	0.683010
Ag391	Ag39	0.116940	0.767110	0.930930
Ag401	Ag40	0.183010	0.760210	0.991690
Ag411	Ag41	0.267110	0.930930	0.616940
Ag421	Ag42	0.260210	0.991690	0.683010
Ag431	Ag43	0.685020	0.616940	0.930930
Ag441	Ag44	0.565090	0.683010	0.991690
Ag451	Ag45	0.116940	0.185020	0.767110
Ag461	Ag46	0.183010	0.065090	0.760210
Ag471	Ag47	0.430930	0.767110	0.185020
Ag481	Ag48	0.491690	0.760210	0.065090
Ag491	Ag49	0.930930	0.116940	0.685020
Ag501	Ag50	0.991690	0.183010	0.565090
Ag511	Ag51	0.616940	0.430930	0.267110
Ag521	Ag52	0.683010	0.491690	0.260210
Ag531	Ag53	0.185020	0.267110	0.430930
Ag541	Ag54	0.065090	0.260210	0.491690
Ag551	Ag55	0.767110	0.685020	0.116940
Ag561	Ag56	0.760210	0.565090	0.183010
Ag571	Ag57	0.930930	0.685020	0.267110
Ag581	Ag58	0.991690	0.565090	0.260210
Ag591	Ag59	0.616940	0.267110	0.685020
Ag601	Ag60	0.683010	0.260210	0.565090
Ag611	Ag61	0.185020	0.430930	0.116940
Ag621	Ag62	0.065090	0.491690	0.183010
Ag631	Ag63	0.767110	0.116940	0.430930
Ag641	Ag64	0.760210	0.183010	0.491690
Ag651	Ag65	0.930930	0.267110	0.116940
Ag661	Ag66	0.991690	0.260210	0.183010
Ag671	Ag67	0.616940	0.685020	0.430930
Ag681	Ag68	0.683010	0.565090	0.491690
Ag691	Ag69	0.185020	0.116940	0.267110
Ag701	Ag70	0.065090	0.183010	0.260210
Ag711	Ag71	0.767110	0.430930	0.685020
Ag721	Ag72	0.760210	0.491690	0.565090
Ag731	Ag73	0.883060	0.069070	0.814980
Ag741	Ag74	0.816990	0.008310	0.934910
Ag751	Ag75	0.569070	0.383060	0.232890
Ag761	Ag76	0.508310	0.316990	0.239790
Ag771	Ag77	0.732890	0.814980	0.069070
Ag781	Ag78	0.739790	0.934910	0.008310
Ag791	Ag79	0.314980	0.232890	0.383060
Ag801	Ag80	0.434910	0.239790	0.316990
Ag811	Ag81	0.314980	0.069070	0.232890
Ag821	Ag82	0.434910	0.008310	0.239790
Ag831	Ag83	0.732890	0.383060	0.814980
Ag841	Ag84	0.739790	0.316990	0.934910
Ag851	Ag85	0.569070	0.814980	0.383060
Ag861	Ag86	0.508310	0.934910	0.316990
Ag871	Ag87	0.883060	0.232890	0.069070
Ag881	Ag88	0.816990	0.239790	0.008310
Ag891	Ag89	0.732890	0.069070	0.383060
Ag901	Ag90	0.739790	0.008310	0.316990
Ag911	Ag91	0.314980	0.383060	0.069070
Ag921	Ag92	0.434910	0.316990	0.008310
Ag931	Ag93	0.883060	0.814980	0.232890
Ag941	Ag94	0.816990	0.934910	0.239790
Ag951	Ag95	0.569070	0.232890	0.814980
Ag961	Ag96	0.508310	0.239790	0.934910
H11	H1	0.157600	0.864200	0.343200
H21	H2	0.103000	0.788000	0.471400
H31	H3	0.961600	0.983000	0.320800
H41	H4	0.902300	0.904300	0.443900
H51	H5	0.150500	0.857300	0.461700
H61	H6	0.234400	0.770400	0.392400
H71	H7	0.874900	0.023100	0.423300
H81	H8	0.844800	0.989400	0.352000
H91	H9	0.364200	0.657600	0.635000
H101	H10	0.288000	0.603000	0.637600
H111	H11	0.483000	0.461600	0.734600
H121	H12	0.404300	0.402300	0.749500
H131	H13	0.357300	0.650500	0.530500
H141	H14	0.270400	0.734400	0.602800
H151	H15	0.523100	0.374900	0.678700
H161	H16	0.489400	0.344800	0.813800
H171	H17	0.843200	0.635000	0.657600
H181	H18	0.971400	0.637600	0.603000
H191	H19	0.820800	0.734600	0.461600
H201	H20	0.943900	0.749500	0.402300
H211	H21	0.961700	0.530500	0.650500
H221	H22	0.892400	0.602800	0.734400
H231	H23	0.923300	0.678700	0.374900
H241	H24	0.852000	0.813800	0.344800
H251	H25	0.135000	0.343200	0.864200
H261	H26	0.137600	0.471400	0.788000
H271	H27	0.234600	0.320800	0.983000
H281	H28	0.249500	0.443900	0.904300
H291	H29	0.030500	0.461700	0.857300
H301	H30	0.102800	0.392400	0.770400
H311	H31	0.178700	0.423300	0.023100
H321	H32	0.313800	0.352000	0.989400
H331	H33	0.157600	0.343200	0.635000
H341	H34	0.103000	0.471400	0.637600
H351	H35	0.961600	0.320800	0.734600
H361	H36	0.902300	0.443900	0.749500
H371	H37	0.150500	0.461700	0.530500
H381	H38	0.234400	0.392400	0.602800
H391	H39	0.874900	0.423300	0.678700
H401	H40	0.844800	0.352000	0.813800
H411	H41	0.364200	0.635000	0.343200
H421	H42	0.288000	0.637600	0.471400
H431	H43	0.483000	0.734600	0.320800
H441	H44	0.404300	0.749500	0.443900
H451	H45	0.357300	0.530500	0.461700
H461	H46	0.270400	0.602800	0.392400
H471	H47	0.523100	0.678700	0.423300
H481	H48	0.489400	0.813800	0.352000
H491	H49	0.843200	0.657600	0.864200
H501	H50	0.971400	0.603000	0.788000
H511	H51	0.820800	0.461600	0.983000
H521	H52	0.943900	0.402300	0.904300
H531	H53	0.961700	0.650500	0.857300
H541	H54	0.892400	0.734400	0.770400
H551	H55	0.923300	0.374900	0.023100
H561	H56	0.852000	0.344800	0.989400
H571	H57	0.135000	0.864200	0.657600
H581	H58	0.137600	0.788000	0.603000
H591	H59	0.234600	0.983000	0.461600
H601	H60	0.249500	0.904300	0.402300
H611	H61	0.030500	0.857300	0.650500
H621	H62	0.102800	0.770400	0.734400
H631	H63	0.178700	0.023100	0.374900
H641	H64	0.313800	0.989400	0.344800
H651	H65	0.157600	0.635000	0.864200
H661	H66	0.103000	0.637600	0.788000
H671	H67	0.961600	0.734600	0.983000
H681	H68	0.902300	0.749500	0.904300
H691	H69	0.150500	0.530500	0.857300
H701	H70	0.234400	0.602800	0.770400
H711	H71	0.874900	0.678700	0.023100
H721	H72	0.844800	0.813800	0.989400
H731	H73	0.364200	0.343200	0.657600
H741	H74	0.288000	0.471400	0.603000
H751	H75	0.483000	0.320800	0.461600
H761	H76	0.404300	0.443900	0.402300
H771	H77	0.357300	0.461700	0.650500
H781	H78	0.270400	0.392400	0.734400
H791	H79	0.523100	0.423300	0.374900
H801	H80	0.489400	0.352000	0.344800
H811	H81	0.843200	0.864200	0.635000
H821	H82	0.971400	0.788000	0.637600
H831	H83	0.820800	0.983000	0.734600
H841	H84	0.943900	0.904300	0.749500
H851	H85	0.961700	0.857300	0.530500
H861	H86	0.892400	0.770400	0.602800
H871	H87	0.923300	0.023100	0.678700
H881	H88	0.852000	0.989400	0.813800
H891	H89	0.135000	0.657600	0.343200
H901	H90	0.137600	0.603000	0.471400
H911	H91	0.234600	0.461600	0.320800
H921	H92	0.249500	0.402300	0.443900
H931	H93	0.030500	0.650500	0.461700
H941	H94	0.102800	0.734400	0.392400
H951	H95	0.178700	0.374900	0.423300
H961	H96	0.313800	0.344800	0.352000
H971	H97	0.135800	0.842400	0.156800
H981	H98	0.212000	0.897000	0.028600
H991	H99	0.017000	0.038400	0.179200
H1001	H100	0.095700	0.097700	0.056100
H1011	H101	0.142700	0.849500	0.038300
H1021	H102	0.229600	0.765600	0.107600
H1031	H103	0.976900	0.125100	0.076700
H1041	H104	0.010600	0.155200	0.148000
H1051	H105	0.342400	0.635800	0.865000
H1061	H106	0.397000	0.712000	0.862400
H1071	H107	0.538400	0.517000	0.765400
H1081	H108	0.597700	0.595700	0.750500
H1091	H109	0.349500	0.642700	0.969500
H1101	H110	0.265600	0.729600	0.897200
H1111	H111	0.625100	0.476900	0.821300
H1121	H112	0.655200	0.510600	0.686200
H1131	H113	0.365000	0.156800	0.842400
H1141	H114	0.362400	0.028600	0.897000
H1151	H115	0.265400	0.179200	0.038400
H1161	H116	0.250500	0.056100	0.097700
H1171	H117	0.469500	0.038300	0.849500
H1181	H118	0.397200	0.107600	0.765600
H1191	H119	0.321300	0.076700	0.125100
H1201	H120	0.186200	0.148000	0.155200
H1211	H121	0.656800	0.865000	0.635800
H1221	H122	0.528600	0.862400	0.712000
H1231	H123	0.679200	0.765400	0.517000
H1241	H124	0.556100	0.750500	0.595700
H1251	H125	0.538300	0.969500	0.642700
H1261	H126	0.607600	0.897200	0.729600
H1271	H127	0.576700	0.821300	0.476900
H1281	H128	0.648000	0.686200	0.510600
H1291	H129	0.656800	0.842400	0.865000
H1301	H130	0.528600	0.897000	0.862400
H1311	H131	0.679200	0.038400	0.765400
H1321	H132	0.556100	0.097700	0.750500
H1331	H133	0.538300	0.849500	0.969500
H1341	H134	0.607600	0.765600	0.897200
H1351	H135	0.576700	0.125100	0.821300
H1361	H136	0.648000	0.155200	0.686200
H1371	H137	0.365000	0.635800	0.156800
H1381	H138	0.362400	0.712000	0.028600
H1391	H139	0.265400	0.517000	0.179200
H1401	H140	0.250500	0.595700	0.056100
H1411	H141	0.469500	0.642700	0.038300
H1421	H142	0.397200	0.729600	0.107600
H1431	H143	0.321300	0.476900	0.076700
H1441	H144	0.186200	0.510600	0.148000
H1451	H145	0.342400	0.156800	0.635800
H1461	H146	0.397000	0.028600	0.712000
H1471	H147	0.538400	0.179200	0.517000
H1481	H148	0.597700	0.056100	0.595700
H1491	H149	0.349500	0.038300	0.642700
H1501	H150	0.265600	0.107600	0.729600
H1511	H151	0.625100	0.076700	0.476900
H1521	H152	0.655200	0.148000	0.510600
H1531	H153	0.135800	0.865000	0.842400
H1541	H154	0.212000	0.862400	0.897000
H1551	H155	0.017000	0.765400	0.038400
H1561	H156	0.095700	0.750500	0.097700
H1571	H157	0.142700	0.969500	0.849500
H1581	H158	0.229600	0.897200	0.765600
H1591	H159	0.976900	0.821300	0.125100
H1601	H160	0.010600	0.686200	0.155200
H1611	H161	0.365000	0.842400	0.635800
H1621	H162	0.362400	0.897000	0.712000
H1631	H163	0.265400	0.038400	0.517000
H1641	H164	0.250500	0.097700	0.595700
H1651	H165	0.469500	0.849500	0.642700
H1661	H166	0.397200	0.765600	0.729600
H1671	H167	0.321300	0.125100	0.476900
H1681	H168	0.186200	0.155200	0.510600
H1691	H169	0.656800	0.635800	0.842400
H1701	H170	0.528600	0.712000	0.897000
H1711	H171	0.679200	0.517000	0.038400
H1721	H172	0.556100	0.595700	0.097700
H1731	H173	0.538300	0.642700	0.849500
H1741	H174	0.607600	0.729600	0.765600
H1751	H175	0.576700	0.476900	0.125100
H1761	H176	0.648000	0.510600	0.155200
H1771	H177	0.135800	0.156800	0.865000
H1781	H178	0.212000	0.028600	0.862400
H1791	H179	0.017000	0.179200	0.765400
H1801	H180	0.095700	0.056100	0.750500
H1811	H181	0.142700	0.038300	0.969500
H1821	H182	0.229600	0.107600	0.897200
H1831	H183	0.976900	0.076700	0.821300
H1841	H184	0.010600	0.148000	0.686200
H1851	H185	0.342400	0.865000	0.156800
H1861	H186	0.397000	0.862400	0.028600
H1871	H187	0.538400	0.765400	0.179200
H1881	H188	0.597700	0.750500	0.056100
H1891	H189	0.349500	0.969500	0.038300
H1901	H190	0.265600	0.897200	0.107600
H1911	H191	0.625100	0.821300	0.076700
H1921	H192	0.655200	0.686200	0.148000
H1931	H193	0.842400	0.135800	0.656800
H1941	H194	0.897000	0.212000	0.528600
H1951	H195	0.038400	0.017000	0.679200
H1961	H196	0.097700	0.095700	0.556100
H1971	H197	0.849500	0.142700	0.538300
H1981	H198	0.765600	0.229600	0.607600
H1991	H199	0.125100	0.976900	0.576700
H2001	H200	0.155200	0.010600	0.648000
H2011	H201	0.635800	0.342400	0.365000
H2021	H202	0.712000	0.397000	0.362400
H2031	H203	0.517000	0.538400	0.265400
H2041	H204	0.595700	0.597700	0.250500
H2051	H205	0.642700	0.349500	0.469500
H2061	H206	0.729600	0.265600	0.397200
H2071	H207	0.476900	0.625100	0.321300
H2081	H208	0.510600	0.655200	0.186200
H2091	H209	0.156800	0.365000	0.342400
H2101	H210	0.028600	0.362400	0.397000
H2111	H211	0.179200	0.265400	0.538400
H2121	H212	0.056100	0.250500	0.597700
H2131	H213	0.038300	0.469500	0.349500
H2141	H214	0.107600	0.397200	0.265600
H2151	H215	0.076700	0.321300	0.625100
H2161	H216	0.148000	0.186200	0.655200
H2171	H217	0.865000	0.656800	0.135800
H2181	H218	0.862400	0.528600	0.212000
H2191	H219	0.765400	0.679200	0.017000
H2201	H220	0.750500	0.556100	0.095700
H2211	H221	0.969500	0.538300	0.142700
H2221	H222	0.897200	0.607600	0.229600
H2231	H223	0.821300	0.576700	0.976900
H2241	H224	0.686200	0.648000	0.010600
H2251	H225	0.842400	0.656800	0.365000
H2261	H226	0.897000	0.528600	0.362400
H2271	H227	0.038400	0.679200	0.265400
H2281	H228	0.097700	0.556100	0.250500
H2291	H229	0.849500	0.538300	0.469500
H2301	H230	0.765600	0.607600	0.397200
H2311	H231	0.125100	0.576700	0.321300
H2321	H232	0.155200	0.648000	0.186200
H2331	H233	0.635800	0.365000	0.656800
H2341	H234	0.712000	0.362400	0.528600
H2351	H235	0.517000	0.265400	0.679200
H2361	H236	0.595700	0.250500	0.556100
H2371	H237	0.642700	0.469500	0.538300
H2381	H238	0.729600	0.397200	0.607600
H2391	H239	0.476900	0.321300	0.576700
H2401	H240	0.510600	0.186200	0.648000
H2411	H241	0.156800	0.342400	0.135800
H2421	H242	0.028600	0.397000	0.212000
H2431	H243	0.179200	0.538400	0.017000
H2441	H244	0.056100	0.597700	0.095700
H2451	H245	0.038300	0.349500	0.142700
H2461	H246	0.107600	0.265600	0.229600
H2471	H247	0.076700	0.625100	0.976900
H2481	H248	0.148000	0.655200	0.010600
H2491	H249	0.865000	0.135800	0.342400
H2501	H250	0.862400	0.212000	0.397000
H2511	H251	0.765400	0.017000	0.538400
H2521	H252	0.750500	0.095700	0.597700
H2531	H253	0.969500	0.142700	0.349500
H2541	H254	0.897200	0.229600	0.265600
H2551	H255	0.821300	0.976900	0.625100
H2561	H256	0.686200	0.010600	0.655200
H2571	H257	0.842400	0.365000	0.135800
H2581	H258	0.897000	0.362400	0.212000
H2591	H259	0.038400	0.265400	0.017000
H2601	H260	0.097700	0.250500	0.095700
H2611	H261	0.849500	0.469500	0.142700
H2621	H262	0.765600	0.397200	0.229600
H2631	H263	0.125100	0.321300	0.976900
H2641	H264	0.155200	0.186200	0.010600
H2651	H265	0.635800	0.656800	0.342400
H2661	H266	0.712000	0.528600	0.397000
H2671	H267	0.517000	0.679200	0.538400
H2681	H268	0.595700	0.556100	0.597700
H2691	H269	0.642700	0.538300	0.349500
H2701	H270	0.729600	0.607600	0.265600
H2711	H271	0.476900	0.576700	0.625100
H2721	H272	0.510600	0.648000	0.655200
H2731	H273	0.156800	0.135800	0.365000
H2741	H274	0.028600	0.212000	0.362400
H2751	H275	0.179200	0.017000	0.265400
H2761	H276	0.056100	0.095700	0.250500
H2771	H277	0.038300	0.142700	0.469500
H2781	H278	0.107600	0.229600	0.397200
H2791	H279	0.076700	0.976900	0.321300
H2801	H280	0.148000	0.010600	0.186200
H2811	H281	0.865000	0.342400	0.656800
H2821	H282	0.862400	0.397000	0.528600
H2831	H283	0.765400	0.538400	0.679200
H2841	H284	0.750500	0.597700	0.556100
H2851	H285	0.969500	0.349500	0.538300
H2861	H286	0.897200	0.265600	0.607600
H2871	H287	0.821300	0.625100	0.576700
H2881	H288	0.686200	0.655200	0.648000
H2891	H289	0.864200	0.157600	0.843200
H2901	H290	0.788000	0.103000	0.971400
H2911	H291	0.983000	0.961600	0.820800
H2921	H292	0.904300	0.902300	0.943900
H2931	H293	0.857300	0.150500	0.961700
H2941	H294	0.770400	0.234400	0.892400
H2951	H295	0.023100	0.874900	0.923300
H2961	H296	0.989400	0.844800	0.852000
H2971	H297	0.657600	0.364200	0.135000
H2981	H298	0.603000	0.288000	0.137600
H2991	H299	0.461600	0.483000	0.234600
H3001	H300	0.402300	0.404300	0.249500
H3011	H301	0.650500	0.357300	0.030500
H3021	H302	0.734400	0.270400	0.102800
H3031	H303	0.374900	0.523100	0.178700
H3041	H304	0.344800	0.489400	0.313800
H3051	H305	0.635000	0.843200	0.157600
H3061	H306	0.637600	0.971400	0.103000
H3071	H307	0.734600	0.820800	0.961600
H3081	H308	0.749500	0.943900	0.902300
H3091	H309	0.530500	0.961700	0.150500
H3101	H310	0.602800	0.892400	0.234400
H3111	H311	0.678700	0.923300	0.874900
H3121	H312	0.813800	0.852000	0.844800
H3131	H313	0.343200	0.135000	0.364200
H3141	H314	0.471400	0.137600	0.288000
H3151	H315	0.320800	0.234600	0.483000
H3161	H316	0.443900	0.249500	0.404300
H3171	H317	0.461700	0.030500	0.357300
H3181	H318	0.392400	0.102800	0.270400
H3191	H319	0.423300	0.178700	0.523100
H3201	H320	0.352000	0.313800	0.489400
H3211	H321	0.343200	0.157600	0.135000
H3221	H322	0.471400	0.103000	0.137600
H3231	H323	0.320800	0.961600	0.234600
H3241	H324	0.443900	0.902300	0.249500
H3251	H325	0.461700	0.150500	0.030500
H3261	H326	0.392400	0.234400	0.102800
H3271	H327	0.423300	0.874900	0.178700
H3281	H328	0.352000	0.844800	0.313800
H3291	H329	0.635000	0.364200	0.843200
H3301	H330	0.637600	0.288000	0.971400
H3311	H331	0.734600	0.483000	0.820800
H3321	H332	0.749500	0.404300	0.943900
H3331	H333	0.530500	0.357300	0.961700
H3341	H334	0.602800	0.270400	0.892400
H3351	H335	0.678700	0.523100	0.923300
H3361	H336	0.813800	0.489400	0.852000
H3371	H337	0.657600	0.843200	0.364200
H3381	H338	0.603000	0.971400	0.288000
H3391	H339	0.461600	0.820800	0.483000
H3401	H340	0.402300	0.943900	0.404300
H3411	H341	0.650500	0.961700	0.357300
H3421	H342	0.734400	0.892400	0.270400
H3431	H343	0.374900	0.923300	0.523100
H3441	H344	0.344800	0.852000	0.489400
H3451	H345	0.864200	0.135000	0.157600
H3461	H346	0.788000	0.137600	0.103000
H3471	H347	0.983000	0.234600	0.961600
H3481	H348	0.904300	0.249500	0.902300
H3491	H349	0.857300	0.030500	0.150500
H3501	H350	0.770400	0.102800	0.234400
H3511	H351	0.023100	0.178700	0.874900
H3521	H352	0.989400	0.313800	0.844800
H3531	H353	0.635000	0.157600	0.364200
H3541	H354	0.637600	0.103000	0.288000
H3551	H355	0.734600	0.961600	0.483000
H3561	H356	0.749500	0.902300	0.404300
H3571	H357	0.530500	0.150500	0.357300
H3581	H358	0.602800	0.234400	0.270400
H3591	H359	0.678700	0.874900	0.523100
H3601	H360	0.813800	0.844800	0.489400
H3611	H361	0.343200	0.364200	0.157600
H3621	H362	0.471400	0.288000	0.103000
H3631	H363	0.320800	0.483000	0.961600
H3641	H364	0.443900	0.404300	0.902300
H3651	H365	0.461700	0.357300	0.150500
H3661	H366	0.392400	0.270400	0.234400
H3671	H367	0.423300	0.523100	0.874900
H3681	H368	0.352000	0.489400	0.844800
H3691	H369	0.864200	0.843200	0.135000
H3701	H370	0.788000	0.971400	0.137600
H3711	H371	0.983000	0.820800	0.234600
H3721	H372	0.904300	0.943900	0.249500
H3731	H373	0.857300	0.961700	0.030500
H3741	H374	0.770400	0.892400	0.102800
H3751	H375	0.023100	0.923300	0.178700
H3761	H376	0.989400	0.852000	0.313800
H3771	H377	0.657600	0.135000	0.843200
H3781	H378	0.603000	0.137600	0.971400
H3791	H379	0.461600	0.234600	0.820800
H3801	H380	0.402300	0.249500	0.943900
H3811	H381	0.650500	0.030500	0.961700
H3821	H382	0.734400	0.102800	0.892400
H3831	H383	0.374900	0.178700	0.923300
H3841	H384	0.344800	0.313800	0.852000
C11	C1	0.137900	0.847960	0.369780
C21	C2	0.107820	0.806920	0.439700
C31	C3	0.956970	0.957310	0.348450
C41	C4	0.924740	0.914720	0.415160
C51	C5	0.177310	0.834490	0.449430
C61	C6	0.222140	0.787940	0.411920
C71	C7	0.859300	0.023380	0.407640
C81	C8	0.842620	0.005000	0.368840
C91	C9	0.347960	0.637900	0.644360
C101	C10	0.306920	0.607820	0.645560
C111	C11	0.457310	0.456970	0.737270
C121	C12	0.414720	0.424740	0.745380
C131	C13	0.334490	0.677310	0.538770
C141	C14	0.287940	0.722140	0.578000
C151	C15	0.523380	0.359300	0.709680
C161	C16	0.505000	0.342620	0.783540
C171	C17	0.869780	0.644360	0.637900
C181	C18	0.939700	0.645560	0.607820
C191	C19	0.848450	0.737270	0.456970
C201	C20	0.915160	0.745380	0.424740
C211	C21	0.949430	0.538770	0.677310
C221	C22	0.911920	0.578000	0.722140
C231	C23	0.907640	0.709680	0.359300
C241	C24	0.868840	0.783540	0.342620
C251	C25	0.144360	0.369780	0.847960
C261	C26	0.145560	0.439700	0.806920
C271	C27	0.237270	0.348450	0.957310
C281	C28	0.245380	0.415160	0.914720
C291	C29	0.038770	0.449430	0.834490
C301	C30	0.078000	0.411920	0.787940
C311	C31	0.209680	0.407640	0.023380
C321	C32	0.283540	0.368840	0.005000
C331	C33	0.137900	0.369780	0.644360
C341	C34	0.107820	0.439700	0.645560
C351	C35	0.956970	0.348450	0.737270
C361	C36	0.924740	0.415160	0.745380
C371	C37	0.177310	0.449430	0.538770
C381	C38	0.222140	0.411920	0.578000
C391	C39	0.859300	0.407640	0.709680
C401	C40	0.842620	0.368840	0.783540
C411	C41	0.347960	0.644360	0.369780
C421	C42	0.306920	0.645560	0.439700
C431	C43	0.457310	0.737270	0.348450
C441	C44	0.414720	0.745380	0.415160
C451	C45	0.334490	0.538770	0.449430
C461	C46	0.287940	0.578000	0.411920
C471	C47	0.523380	0.709680	0.407640
C481	C48	0.505000	0.783540	0.368840
C491	C49	0.869780	0.637900	0.847960
C501	C50	0.939700	0.607820	0.806920
C511	C51	0.848450	0.456970	0.957310
C521	C52	0.915160	0.424740	0.914720
C531	C53	0.949430	0.677310	0.834490
C541	C54	0.911920	0.722140	0.787940
C551	C55	0.907640	0.359300	0.023380
C561	C56	0.868840	0.342620	0.005000
C571	C57	0.144360	0.847960	0.637900
C581	C58	0.145560	0.806920	0.607820
C591	C59	0.237270	0.957310	0.456970
C601	C60	0.245380	0.914720	0.424740
C611	C61	0.038770	0.834490	0.677310
C621	C62	0.078000	0.787940	0.722140
C631	C63	0.209680	0.023380	0.359300
C641	C64	0.283540	0.005000	0.342620
C651	C65	0.137900	0.644360	0.847960
C661	C66	0.107820	0.645560	0.806920
C671	C67	0.956970	0.737270	0.957310
C681	C68	0.924740	0.745380	0.914720
C691	C69	0.177310	0.538770	0.834490
C701	C70	0.222140	0.578000	0.787940
C711	C71	0.859300	0.709680	0.023380
C721	C72	0.842620	0.783540	0.005000
C731	C73	0.347960	0.369780	0.637900
C741	C74	0.306920	0.439700	0.607820
C751	C75	0.457310	0.348450	0.456970
C761	C76	0.414720	0.415160	0.424740
C771	C77	0.334490	0.449430	0.677310
C781	C78	0.287940	0.411920	0.722140
C791	C79	0.523380	0.407640	0.359300
C801	C80	0.505000	0.368840	0.342620
C811	C81	0.869780	0.847960	0.644360
C821	C82	0.939700	0.806920	0.645560
C831	C83	0.848450	0.957310	0.737270
C841	C84	0.915160	0.914720	0.745380
C851	C85	0.949430	0.834490	0.538770
C861	C86	0.911920	0.787940	0.578000
C871	C87	0.907640	0.023380	0.709680
C881	C88	0.868840	0.005000	0.783540
C891	C89	0.144360	0.637900	0.369780
C901	C90	0.145560	0.607820	0.439700
C911	C91	0.237270	0.456970	0.348450
C921	C92	0.245380	0.424740	0.415160
C931	C93	0.038770	0.677310	0.449430
C941	C94	0.078000	0.722140	0.411920
C951	C95	0.209680	0.359300	0.407640
C961	C96	0.283540	0.342620	0.368840
C971	C97	0.152040	0.862100	0.130220
C981	C98	0.193080	0.892180	0.060300
C991	C99	0.042690	0.043030	0.151550
C1001	C100	0.085280	0.075260	0.084840
C1011	C101	0.165510	0.822690	0.050570
C1021	C102	0.212060	0.777860	0.088080
C1031	C103	0.976620	0.140700	0.092360
C1041	C104	0.995000	0.157380	0.131160
C1051	C105	0.362100	0.652040	0.855640
C1061	C106	0.392180	0.693080	0.854440
C1071	C107	0.543030	0.542690	0.762730
C1081	C108	0.575260	0.585280	0.754620
C1091	C109	0.322690	0.665510	0.961230
C1101	C110	0.277860	0.712060	0.922000
C1111	C111	0.640700	0.476620	0.790320
C1121	C112	0.657380	0.495000	0.716460
C1131	C113	0.355640	0.130220	0.862100
C1141	C114	0.354440	0.060300	0.892180
C1151	C115	0.262730	0.151550	0.043030
C1161	C116	0.254620	0.084840	0.075260
C1171	C117	0.461230	0.050570	0.822690
C1181	C118	0.422000	0.088080	0.777860
C1191	C119	0.290320	0.092360	0.140700
C1201	C120	0.216460	0.131160	0.157380
C1211	C121	0.630220	0.855640	0.652040
C1221	C122	0.560300	0.854440	0.693080
C1231	C123	0.651550	0.762730	0.542690
C1241	C124	0.584840	0.754620	0.585280
C1251	C125	0.550570	0.961230	0.665510
C1261	C126	0.588080	0.922000	0.712060
C1271	C127	0.592360	0.790320	0.476620
C1281	C128	0.631160	0.716460	0.495000
C1291	C129	0.630220	0.862100	0.855640
C1301	C130	0.560300	0.892180	0.854440
C1311	C131	0.651550	0.043030	0.762730
C1321	C132	0.584840	0.075260	0.754620
C1331	C133	0.550570	0.822690	0.961230
C1341	C134	0.588080	0.777860	0.922000
C1351	C135	0.592360	0.140700	0.790320
C1361	C136	0.631160	0.157380	0.716460
C1371	C137	0.355640	0.652040	0.130220
C1381	C138	0.354440	0.693080	0.060300
C1391	C139	0.262730	0.542690	0.151550
C1401	C140	0.254620	0.585280	0.084840
C1411	C141	0.461230	0.665510	0.050570
C1421	C142	0.422000	0.712060	0.088080
C1431	C143	0.290320	0.476620	0.092360
C1441	C144	0.216460	0.495000	0.131160
C1451	C145	0.362100	0.130220	0.652040
C1461	C146	0.392180	0.060300	0.693080
C1471	C147	0.543030	0.151550	0.542690
C1481	C148	0.575260	0.084840	0.585280
C1491	C149	0.322690	0.050570	0.665510
C1501	C150	0.277860	0.088080	0.712060
C1511	C151	0.640700	0.092360	0.476620
C1521	C152	0.657380	0.131160	0.495000
C1531	C153	0.152040	0.855640	0.862100
C1541	C154	0.193080	0.854440	0.892180
C1551	C155	0.042690	0.762730	0.043030
C1561	C156	0.085280	0.754620	0.075260
C1571	C157	0.165510	0.961230	0.822690
C1581	C158	0.212060	0.922000	0.777860
C1591	C159	0.976620	0.790320	0.140700
C1601	C160	0.995000	0.716460	0.157380
C1611	C161	0.355640	0.862100	0.652040
C1621	C162	0.354440	0.892180	0.693080
C1631	C163	0.262730	0.043030	0.542690
C1641	C164	0.254620	0.075260	0.585280
C1651	C165	0.461230	0.822690	0.665510
C1661	C166	0.422000	0.777860	0.712060
C1671	C167	0.290320	0.140700	0.476620
C1681	C168	0.216460	0.157380	0.495000
C1691	C169	0.630220	0.652040	0.862100
C1701	C170	0.560300	0.693080	0.892180
C1711	C171	0.651550	0.542690	0.043030
C1721	C172	0.584840	0.585280	0.075260
C1731	C173	0.550570	0.665510	0.822690
C1741	C174	0.588080	0.712060	0.777860
C1751	C175	0.592360	0.476620	0.140700
C1761	C176	0.631160	0.495000	0.157380
C1771	C177	0.152040	0.130220	0.855640
C1781	C178	0.193080	0.060300	0.854440
C1791	C179	0.042690	0.151550	0.762730
C1801	C180	0.085280	0.084840	0.754620
C1811	C181	0.165510	0.050570	0.961230
C1821	C182	0.212060	0.088080	0.922000
C1831	C183	0.976620	0.092360	0.790320
C1841	C184	0.995000	0.131160	0.716460
C1851	C185	0.362100	0.855640	0.130220
C1861	C186	0.392180	0.854440	0.060300
C1871	C187	0.543030	0.762730	0.151550
C1881	C188	0.575260	0.754620	0.084840
C1891	C189	0.322690	0.961230	0.050570
C1901	C190	0.277860	0.922000	0.088080
C1911	C191	0.640700	0.790320	0.092360
C1921	C192	0.657380	0.716460	0.131160
C1931	C193	0.862100	0.152040	0.630220
C1941	C194	0.892180	0.193080	0.560300
C1951	C195	0.043030	0.042690	0.651550
C1961	C196	0.075260	0.085280	0.584840
C1971	C197	0.822690	0.165510	0.550570
C1981	C198	0.777860	0.212060	0.588080
C1991	C199	0.140700	0.976620	0.592360
C2001	C200	0.157380	0.995000	0.631160
C2011	C201	0.652040	0.362100	0.355640
C2021	C202	0.693080	0.392180	0.354440
C2031	C203	0.542690	0.543030	0.262730
C2041	C204	0.585280	0.575260	0.254620
C2051	C205	0.665510	0.322690	0.461230
C2061	C206	0.712060	0.277860	0.422000
C2071	C207	0.476620	0.640700	0.290320
C2081	C208	0.495000	0.657380	0.216460
C2091	C209	0.130220	0.355640	0.362100
C2101	C210	0.060300	0.354440	0.392180
C2111	C211	0.151550	0.262730	0.543030
C2121	C212	0.084840	0.254620	0.575260
C2131	C213	0.050570	0.461230	0.322690
C2141	C214	0.088080	0.422000	0.277860
C2151	C215	0.092360	0.290320	0.640700
C2161	C216	0.131160	0.216460	0.657380
C2171	C217	0.855640	0.630220	0.152040
C2181	C218	0.854440	0.560300	0.193080
C2191	C219	0.762730	0.651550	0.042690
C2201	C220	0.754620	0.584840	0.085280
C2211	C221	0.961230	0.550570	0.165510
C2221	C222	0.922000	0.588080	0.212060
C2231	C223	0.790320	0.592360	0.976620
C2241	C224	0.716460	0.631160	0.995000
C2251	C225	0.862100	0.630220	0.355640
C2261	C226	0.892180	0.560300	0.354440
C2271	C227	0.043030	0.651550	0.262730
C2281	C228	0.075260	0.584840	0.254620
C2291	C229	0.822690	0.550570	0.461230
C2301	C230	0.777860	0.588080	0.422000
C2311	C231	0.140700	0.592360	0.290320
C2321	C232	0.157380	0.631160	0.216460
C2331	C233	0.652040	0.355640	0.630220
C2341	C234	0.693080	0.354440	0.560300
C2351	C235	0.542690	0.262730	0.651550
C2361	C236	0.585280	0.254620	0.584840
C2371	C237	0.665510	0.461230	0.550570
C2381	C238	0.712060	0.422000	0.588080
C2391	C239	0.476620	0.290320	0.592360
C2401	C240	0.495000	0.216460	0.631160
C2411	C241	0.130220	0.362100	0.152040
C2421	C242	0.060300	0.392180	0.193080
C2431	C243	0.151550	0.543030	0.042690
C2441	C244	0.084840	0.575260	0.085280
C2451	C245	0.050570	0.322690	0.165510
C2461	C246	0.088080	0.277860	0.212060
C2471	C247	0.092360	0.640700	0.976620
C2481	C248	0.131160	0.657380	0.995000
C2491	C249	0.855640	0.152040	0.362100
C2501	C250	0.854440	0.193080	0.392180
C2511	C251	0.762730	0.042690	0.543030
C2521	C252	0.754620	0.085280	0.575260
C2531	C253	0.961230	0.165510	0.322690
C2541	C254	0.922000	0.212060	0.277860
C2551	C255	0.790320	0.976620	0.640700
C2561	C256	0.716460	0.995000	0.657380
C2571	C257	0.862100	0.355640	0.152040
C2581	C258	0.892180	0.354440	0.193080
C2591	C259	0.043030	0.262730	0.042690
C2601	C260	0.075260	0.254620	0.085280
C2611	C261	0.822690	0.461230	0.165510
C2621	C262	0.777860	0.422000	0.212060
C2631	C263	0.140700	0.290320	0.976620
C2641	C264	0.157380	0.216460	0.995000
C2651	C265	0.652040	0.630220	0.362100
C2661	C266	0.693080	0.560300	0.392180
C2671	C267	0.542690	0.651550	0.543030
C2681	C268	0.585280	0.584840	0.575260
C2691	C269	0.665510	0.550570	0.322690
C2701	C270	0.712060	0.588080	0.277860
C2711	C271	0.476620	0.592360	0.640700
C2721	C272	0.495000	0.631160	0.657380
C2731	C273	0.130220	0.152040	0.355640
C2741	C274	0.060300	0.193080	0.354440
C2751	C275	0.151550	0.042690	0.262730
C2761	C276	0.084840	0.085280	0.254620
C2771	C277	0.050570	0.165510	0.461230
C2781	C278	0.088080	0.212060	0.422000
C2791	C279	0.092360	0.976620	0.290320
C2801	C280	0.131160	0.995000	0.216460
C2811	C281	0.855640	0.362100	0.630220
C2821	C282	0.854440	0.392180	0.560300
C2831	C283	0.762730	0.543030	0.651550
C2841	C284	0.754620	0.575260	0.584840
C2851	C285	0.961230	0.322690	0.550570
C2861	C286	0.922000	0.277860	0.588080
C2871	C287	0.790320	0.640700	0.592360
C2881	C288	0.716460	0.657380	0.631160
C2891	C289	0.847960	0.137900	0.869780
C2901	C290	0.806920	0.107820	0.939700
C2911	C291	0.957310	0.956970	0.848450
C2921	C292	0.914720	0.924740	0.915160
C2931	C293	0.834490	0.177310	0.949430
C2941	C294	0.787940	0.222140	0.911920
C2951	C295	0.023380	0.859300	0.907640
C2961	C296	0.005000	0.842620	0.868840
C2971	C297	0.637900	0.347960	0.144360
C2981	C298	0.607820	0.306920	0.145560
C2991	C299	0.456970	0.457310	0.237270
C3001	C300	0.424740	0.414720	0.245380
C3011	C301	0.677310	0.334490	0.038770
C3021	C302	0.722140	0.287940	0.078000
C3031	C303	0.359300	0.523380	0.209680
C3041	C304	0.342620	0.505000	0.283540
C3051	C305	0.644360	0.869780	0.137900
C3061	C306	0.645560	0.939700	0.107820
C3071	C307	0.737270	0.848450	0.956970
C3081	C308	0.745380	0.915160	0.924740
C3091	C309	0.538770	0.949430	0.177310
C3101	C310	0.578000	0.911920	0.222140
C3111	C311	0.709680	0.907640	0.859300
C3121	C312	0.783540	0.868840	0.842620
C3131	C313	0.369780	0.144360	0.347960
C3141	C314	0.439700	0.145560	0.306920
C3151	C315	0.348450	0.237270	0.457310
C3161	C316	0.415160	0.245380	0.414720
C3171	C317	0.449430	0.038770	0.334490
C3181	C318	0.411920	0.078000	0.287940
C3191	C319	0.407640	0.209680	0.523380
C3201	C320	0.368840	0.283540	0.505000
C3211	C321	0.369780	0.137900	0.144360
C3221	C322	0.439700	0.107820	0.145560
C3231	C323	0.348450	0.956970	0.237270
C3241	C324	0.415160	0.924740	0.245380
C3251	C325	0.449430	0.177310	0.038770
C3261	C326	0.411920	0.222140	0.078000
C3271	C327	0.407640	0.859300	0.209680
C3281	C328	0.368840	0.842620	0.283540
C3291	C329	0.644360	0.347960	0.869780
C3301	C330	0.645560	0.306920	0.939700
C3311	C331	0.737270	0.457310	0.848450
C3321	C332	0.745380	0.414720	0.915160
C3331	C333	0.538770	0.334490	0.949430
C3341	C334	0.578000	0.287940	0.911920
C3351	C335	0.709680	0.523380	0.907640
C3361	C336	0.783540	0.505000	0.868840
C3371	C337	0.637900	0.869780	0.347960
C3381	C338	0.607820	0.939700	0.306920
C3391	C339	0.456970	0.848450	0.457310
C3401	C340	0.424740	0.915160	0.414720
C3411	C341	0.677310	0.949430	0.334490
C3421	C342	0.722140	0.911920	0.287940
C3431	C343	0.359300	0.907640	0.523380
C3441	C344	0.342620	0.868840	0.505000
C3451	C345	0.847960	0.144360	0.137900
C3461	C346	0.806920	0.145560	0.107820
C3471	C347	0.957310	0.237270	0.956970
C3481	C348	0.914720	0.245380	0.924740
C3491	C349	0.834490	0.038770	0.177310
C3501	C350	0.787940	0.078000	0.222140
C3511	C351	0.023380	0.209680	0.859300
C3521	C352	0.005000	0.283540	0.842620
C3531	C353	0.644360	0.137900	0.347960
C3541	C354	0.645560	0.107820	0.306920
C3551	C355	0.737270	0.956970	0.457310
C3561	C356	0.745380	0.924740	0.414720
C3571	C357	0.538770	0.177310	0.334490
C3581	C358	0.578000	0.222140	0.287940
C3591	C359	0.709680	0.859300	0.523380
C3601	C360	0.783540	0.842620	0.505000
C3611	C361	0.369780	0.347960	0.137900
C3621	C362	0.439700	0.306920	0.107820
C3631	C363	0.348450	0.457310	0.956970
C3641	C364	0.415160	0.414720	0.924740
C3651	C365	0.449430	0.334490	0.177310
C3661	C366	0.411920	0.287940	0.222140
C3671	C367	0.407640	0.523380	0.859300
C3681	C368	0.368840	0.505000	0.842620
C3691	C369	0.847960	0.869780	0.144360
C3701	C370	0.806920	0.939700	0.145560
C3711	C371	0.957310	0.848450	0.237270
C3721	C372	0.914720	0.915160	0.245380
C3731	C373	0.834490	0.949430	0.038770
C3741	C374	0.787940	0.911920	0.078000
C3751	C375	0.023380	0.907640	0.209680
C3761	C376	0.005000	0.868840	0.283540
C3771	C377	0.637900	0.144360	0.869780
C3781	C378	0.607820	0.145560	0.939700
C3791	C379	0.456970	0.237270	0.848450
C3801	C380	0.424740	0.245380	0.915160
C3811	C381	0.677310	0.038770	0.949430
C3821	C382	0.722140	0.078000	0.911920
C3831	C383	0.359300	0.209680	0.907640
C3841	C384	0.342620	0.283540	0.868840
N11	N1	0.967350	0.890190	0.400710
N21	N2	0.988740	0.917580	0.357500
N31	N3	0.080760	0.820640	0.416500
N41	N4	0.102170	0.845690	0.371050
N51	N5	0.216410	0.818030	0.455970
N61	N6	0.245820	0.787620	0.430820
N71	N7	0.808520	0.040980	0.378900
N81	N8	0.818690	0.053910	0.403290
N91	N9	0.143310	0.823950	0.411650
N101	N10	0.178940	0.815700	0.423400
N111	N11	0.916800	0.957420	0.383300
N121	N12	0.875020	0.993440	0.386960
N131	N13	0.390190	0.467350	0.741750
N141	N14	0.417580	0.488740	0.736180
N151	N15	0.320640	0.580760	0.682100
N161	N16	0.345690	0.602170	0.681090
N171	N17	0.318030	0.716410	0.509590
N181	N18	0.287620	0.745820	0.535740
N191	N19	0.540980	0.308520	0.771600
N201	N20	0.553910	0.318690	0.724110
N211	N21	0.323950	0.643310	0.621090
N221	N22	0.315700	0.678940	0.581960
N231	N23	0.457420	0.416800	0.742480
N241	N24	0.493440	0.375020	0.744580
N251	N25	0.900710	0.741750	0.467350
N261	N26	0.857500	0.736180	0.488740
N271	N27	0.916500	0.682100	0.580760
N281	N28	0.871050	0.681090	0.602170
N291	N29	0.955970	0.509590	0.716410
N301	N30	0.930820	0.535740	0.745820
N311	N31	0.878900	0.771600	0.308520
N321	N32	0.903290	0.724110	0.318690
N331	N33	0.911650	0.621090	0.643310
N341	N34	0.923400	0.581960	0.678940
N351	N35	0.883300	0.742480	0.416800
N361	N36	0.886960	0.744580	0.375020
N371	N37	0.241750	0.400710	0.890190
N381	N38	0.236180	0.357500	0.917580
N391	N39	0.182100	0.416500	0.820640
N401	N40	0.181090	0.371050	0.845690
N411	N41	0.009590	0.455970	0.818030
N421	N42	0.035740	0.430820	0.787620
N431	N43	0.271600	0.378900	0.040980
N441	N44	0.224110	0.403290	0.053910
N451	N45	0.121090	0.411650	0.823950
N461	N46	0.081960	0.423400	0.815700
N471	N47	0.242480	0.383300	0.957420
N481	N48	0.244580	0.386960	0.993440
N491	N49	0.967350	0.400710	0.741750
N501	N50	0.988740	0.357500	0.736180
N511	N51	0.080760	0.416500	0.682100
N521	N52	0.102170	0.371050	0.681090
N531	N53	0.216410	0.455970	0.509590
N541	N54	0.245820	0.430820	0.535740
N551	N55	0.808520	0.378900	0.771600
N561	N56	0.818690	0.403290	0.724110
N571	N57	0.143310	0.411650	0.621090
N581	N58	0.178940	0.423400	0.581960
N591	N59	0.916800	0.383300	0.742480
N601	N60	0.875020	0.386960	0.744580
N611	N61	0.390190	0.741750	0.400710
N621	N62	0.417580	0.736180	0.357500
N631	N63	0.320640	0.682100	0.416500
N641	N64	0.345690	0.681090	0.371050
N651	N65	0.318030	0.509590	0.455970
N661	N66	0.287620	0.535740	0.430820
N671	N67	0.540980	0.771600	0.378900
N681	N68	0.553910	0.724110	0.403290
N691	N69	0.323950	0.621090	0.411650
N701	N70	0.315700	0.581960	0.423400
N711	N71	0.457420	0.742480	0.383300
N721	N72	0.493440	0.744580	0.386960
N731	N73	0.900710	0.467350	0.890190
N741	N74	0.857500	0.488740	0.917580
N751	N75	0.916500	0.580760	0.820640
N761	N76	0.871050	0.602170	0.845690
N771	N77	0.955970	0.716410	0.818030
N781	N78	0.930820	0.745820	0.787620
N791	N79	0.878900	0.308520	0.040980
N801	N80	0.903290	0.318690	0.053910
N811	N81	0.911650	0.643310	0.823950
N821	N82	0.923400	0.678940	0.815700
N831	N83	0.883300	0.416800	0.957420
N841	N84	0.886960	0.375020	0.993440
N851	N85	0.241750	0.890190	0.467350
N861	N86	0.236180	0.917580	0.488740
N871	N87	0.182100	0.820640	0.580760
N881	N88	0.181090	0.845690	0.602170
N891	N89	0.009590	0.818030	0.716410
N901	N90	0.035740	0.787620	0.745820
N911	N91	0.271600	0.040980	0.308520
N921	N92	0.224110	0.053910	0.318690
N931	N93	0.121090	0.823950	0.643310
N941	N94	0.081960	0.815700	0.678940
N951	N95	0.242480	0.957420	0.416800
N961	N96	0.244580	0.993440	0.375020
N971	N97	0.967350	0.741750	0.890190
N981	N98	0.988740	0.736180	0.917580
N991	N99	0.080760	0.682100	0.820640
N1001	N100	0.102170	0.681090	0.845690
N1011	N101	0.216410	0.509590	0.818030
N1021	N102	0.245820	0.535740	0.787620
N1031	N103	0.808520	0.771600	0.040980
N1041	N104	0.818690	0.724110	0.053910
N1051	N105	0.143310	0.621090	0.823950
N1061	N106	0.178940	0.581960	0.815700
N1071	N107	0.916800	0.742480	0.957420
N1081	N108	0.875020	0.744580	0.993440
N1091	N109	0.390190	0.400710	0.467350
N1101	N110	0.417580	0.357500	0.488740
N1111	N111	0.320640	0.416500	0.580760
N1121	N112	0.345690	0.371050	0.602170
N1131	N113	0.318030	0.455970	0.716410
N1141	N114	0.287620	0.430820	0.745820
N1151	N115	0.540980	0.378900	0.308520
N1161	N116	0.553910	0.403290	0.318690
N1171	N117	0.323950	0.411650	0.643310
N1181	N118	0.315700	0.423400	0.678940
N1191	N119	0.457420	0.383300	0.416800
N1201	N120	0.493440	0.386960	0.375020
N1211	N121	0.900710	0.890190	0.741750
N1221	N122	0.857500	0.917580	0.736180
N1231	N123	0.916500	0.820640	0.682100
N1241	N124	0.871050	0.845690	0.681090
N1251	N125	0.955970	0.818030	0.509590
N1261	N126	0.930820	0.787620	0.535740
N1271	N127	0.878900	0.040980	0.771600
N1281	N128	0.903290	0.053910	0.724110
N1291	N129	0.911650	0.823950	0.621090
N1301	N130	0.923400	0.815700	0.581960
N1311	N131	0.883300	0.957420	0.742480
N1321	N132	0.886960	0.993440	0.744580
N1331	N133	0.241750	0.467350	0.400710
N1341	N134	0.236180	0.488740	0.357500
N1351	N135	0.182100	0.580760	0.416500
N1361	N136	0.181090	0.602170	0.371050
N1371	N137	0.009590	0.716410	0.455970
N1381	N138	0.035740	0.745820	0.430820
N1391	N139	0.271600	0.308520	0.378900
N1401	N140	0.224110	0.318690	0.403290
N1411	N141	0.121090	0.643310	0.411650
N1421	N142	0.081960	0.678940	0.423400
N1431	N143	0.242480	0.416800	0.383300
N1441	N144	0.244580	0.375020	0.386960
N1451	N145	0.109810	0.032650	0.099290
N1461	N146	0.082420	0.011260	0.142500
N1471	N147	0.179360	0.919240	0.083500
N1481	N148	0.154310	0.897830	0.128950
N1491	N149	0.181970	0.783590	0.044030
N1501	N150	0.212380	0.754180	0.069180
N1511	N151	0.959020	0.191480	0.121100
N1521	N152	0.946090	0.181310	0.096710
N1531	N153	0.176050	0.856690	0.088350
N1541	N154	0.184300	0.821060	0.076600
N1551	N155	0.042580	0.083200	0.116700
N1561	N156	0.006560	0.124980	0.113040
N1571	N157	0.532650	0.609810	0.758250
N1581	N158	0.511260	0.582420	0.763820
N1591	N159	0.419240	0.679360	0.817900
N1601	N160	0.397830	0.654310	0.818910
N1611	N161	0.283590	0.681970	0.990410
N1621	N162	0.254180	0.712380	0.964260
N1631	N163	0.691480	0.459020	0.728400
N1641	N164	0.681310	0.446090	0.775890
N1651	N165	0.356690	0.676050	0.878910
N1661	N166	0.321060	0.684300	0.918040
N1671	N167	0.583200	0.542580	0.757520
N1681	N168	0.624980	0.506560	0.755420
N1691	N169	0.258250	0.099290	0.032650
N1701	N170	0.263820	0.142500	0.011260
N1711	N171	0.317900	0.083500	0.919240
N1721	N172	0.318910	0.128950	0.897830
N1731	N173	0.490410	0.044030	0.783590
N1741	N174	0.464260	0.069180	0.754180
N1751	N175	0.228400	0.121100	0.191480
N1761	N176	0.275890	0.096710	0.181310
N1771	N177	0.378910	0.088350	0.856690
N1781	N178	0.418040	0.076600	0.821060
N1791	N179	0.257520	0.116700	0.083200
N1801	N180	0.255420	0.113040	0.124980
N1811	N181	0.599290	0.758250	0.609810
N1821	N182	0.642500	0.763820	0.582420
N1831	N183	0.583500	0.817900	0.679360
N1841	N184	0.628950	0.818910	0.654310
N1851	N185	0.544030	0.990410	0.681970
N1861	N186	0.569180	0.964260	0.712380
N1871	N187	0.621100	0.728400	0.459020
N1881	N188	0.596710	0.775890	0.446090
N1891	N189	0.588350	0.878910	0.676050
N1901	N190	0.576600	0.918040	0.684300
N1911	N191	0.616700	0.757520	0.542580
N1921	N192	0.613040	0.755420	0.506560
N1931	N193	0.599290	0.032650	0.758250
N1941	N194	0.642500	0.011260	0.763820
N1951	N195	0.583500	0.919240	0.817900
N1961	N196	0.628950	0.897830	0.818910
N1971	N197	0.544030	0.783590	0.990410
N1981	N198	0.569180	0.754180	0.964260
N1991	N199	0.621100	0.191480	0.728400
N2001	N200	0.596710	0.181310	0.775890
N2011	N201	0.588350	0.856690	0.878910
N2021	N202	0.576600	0.821060	0.918040
N2031	N203	0.616700	0.083200	0.757520
N2041	N204	0.613040	0.124980	0.755420
N2051	N205	0.258250	0.609810	0.099290
N2061	N206	0.263820	0.582420	0.142500
N2071	N207	0.317900	0.679360	0.083500
N2081	N208	0.318910	0.654310	0.128950
N2091	N209	0.490410	0.681970	0.044030
N2101	N210	0.464260	0.712380	0.069180
N2111	N211	0.228400	0.459020	0.121100
N2121	N212	0.275890	0.446090	0.096710
N2131	N213	0.378910	0.676050	0.088350
N2141	N214	0.418040	0.684300	0.076600
N2151	N215	0.257520	0.542580	0.116700
N2161	N216	0.255420	0.506560	0.113040
N2171	N217	0.532650	0.099290	0.609810
N2181	N218	0.511260	0.142500	0.582420
N2191	N219	0.419240	0.083500	0.679360
N2201	N220	0.397830	0.128950	0.654310
N2211	N221	0.283590	0.044030	0.681970
N2221	N222	0.254180	0.069180	0.712380
N2231	N223	0.691480	0.121100	0.459020
N2241	N224	0.681310	0.096710	0.446090
N2251	N225	0.356690	0.088350	0.676050
N2261	N226	0.321060	0.076600	0.684300
N2271	N227	0.583200	0.116700	0.542580
N2281	N228	0.624980	0.113040	0.506560
N2291	N229	0.109810	0.758250	0.032650
N2301	N230	0.082420	0.763820	0.011260
N2311	N231	0.179360	0.817900	0.919240
N2321	N232	0.154310	0.818910	0.897830
N2331	N233	0.181970	0.990410	0.783590
N2341	N234	0.212380	0.964260	0.754180
N2351	N235	0.959020	0.728400	0.191480
N2361	N236	0.946090	0.775890	0.181310
N2371	N237	0.176050	0.878910	0.856690
N2381	N238	0.184300	0.918040	0.821060
N2391	N239	0.042580	0.757520	0.083200
N2401	N240	0.006560	0.755420	0.124980
N2411	N241	0.258250	0.032650	0.609810
N2421	N242	0.263820	0.011260	0.582420
N2431	N243	0.317900	0.919240	0.679360
N2441	N244	0.318910	0.897830	0.654310
N2451	N245	0.490410	0.783590	0.681970
N2461	N246	0.464260	0.754180	0.712380
N2471	N247	0.228400	0.191480	0.459020
N2481	N248	0.275890	0.181310	0.446090
N2491	N249	0.378910	0.856690	0.676050
N2501	N250	0.418040	0.821060	0.684300
N2511	N251	0.257520	0.083200	0.542580
N2521	N252	0.255420	0.124980	0.506560
N2531	N253	0.599290	0.609810	0.032650
N2541	N254	0.642500	0.582420	0.011260
N2551	N255	0.583500	0.679360	0.919240
N2561	N256	0.628950	0.654310	0.897830
N2571	N257	0.544030	0.681970	0.783590
N2581	N258	0.569180	0.712380	0.754180
N2591	N259	0.621100	0.459020	0.191480
N2601	N260	0.596710	0.446090	0.181310
N2611	N261	0.588350	0.676050	0.856690
N2621	N262	0.576600	0.684300	0.821060
N2631	N263	0.616700	0.542580	0.083200
N2641	N264	0.613040	0.506560	0.124980
N2651	N265	0.109810	0.099290	0.758250
N2661	N266	0.082420	0.142500	0.763820
N2671	N267	0.179360	0.083500	0.817900
N2681	N268	0.154310	0.128950	0.818910
N2691	N269	0.181970	0.044030	0.990410
N2701	N270	0.212380	0.069180	0.964260
N2711	N271	0.959020	0.121100	0.728400
N2721	N272	0.946090	0.096710	0.775890
N2731	N273	0.176050	0.088350	0.878910
N2741	N274	0.184300	0.076600	0.918040
N2751	N275	0.042580	0.116700	0.757520
N2761	N276	0.006560	0.113040	0.755420
N2771	N277	0.532650	0.758250	0.099290
N2781	N278	0.511260	0.763820	0.142500
N2791	N279	0.419240	0.817900	0.083500
N2801	N280	0.397830	0.818910	0.128950
N2811	N281	0.283590	0.990410	0.044030
N2821	N282	0.254180	0.964260	0.069180
N2831	N283	0.691480	0.728400	0.121100
N2841	N284	0.681310	0.775890	0.096710
N2851	N285	0.356690	0.878910	0.088350
N2861	N286	0.321060	0.918040	0.076600
N2871	N287	0.583200	0.757520	0.116700
N2881	N288	0.624980	0.755420	0.113040
N2891	N289	0.032650	0.109810	0.599290
N2901	N290	0.011260	0.082420	0.642500
N2911	N291	0.919240	0.179360	0.583500
N2921	N292	0.897830	0.154310	0.628950
N2931	N293	0.783590	0.181970	0.544030
N2941	N294	0.754180	0.212380	0.569180
N2951	N295	0.191480	0.959020	0.621100
N2961	N296	0.181310	0.946090	0.596710
N2971	N297	0.856690	0.176050	0.588350
N2981	N298	0.821060	0.184300	0.576600
N2991	N299	0.083200	0.042580	0.616700
N3001	N300	0.124980	0.006560	0.613040
N3011	N301	0.609810	0.532650	0.258250
N3021	N302	0.582420	0.511260	0.263820
N3031	N303	0.679360	0.419240	0.317900
N3041	N304	0.654310	0.397830	0.318910
N3051	N305	0.681970	0.283590	0.490410
N3061	N306	0.712380	0.254180	0.464260
N3071	N307	0.459020	0.691480	0.228400
N3081	N308	0.446090	0.681310	0.275890
N3091	N309	0.676050	0.356690	0.378910
N3101	N310	0.684300	0.321060	0.418040
N3111	N311	0.542580	0.583200	0.257520
N3121	N312	0.506560	0.624980	0.255420
N3131	N313	0.099290	0.258250	0.532650
N3141	N314	0.142500	0.263820	0.511260
N3151	N315	0.083500	0.317900	0.419240
N3161	N316	0.128950	0.318910	0.397830
N3171	N317	0.044030	0.490410	0.283590
N3181	N318	0.069180	0.464260	0.254180
N3191	N319	0.121100	0.228400	0.691480
N3201	N320	0.096710	0.275890	0.681310
N3211	N321	0.088350	0.378910	0.356690
N3221	N322	0.076600	0.418040	0.321060
N3231	N323	0.116700	0.257520	0.583200
N3241	N324	0.113040	0.255420	0.624980
N3251	N325	0.758250	0.599290	0.109810
N3261	N326	0.763820	0.642500	0.082420
N3271	N327	0.817900	0.583500	0.179360
N3281	N328	0.818910	0.628950	0.154310
N3291	N329	0.990410	0.544030	0.181970
N3301	N330	0.964260	0.569180	0.212380
N3311	N331	0.728400	0.621100	0.959020
N3321	N332	0.775890	0.596710	0.946090
N3331	N333	0.878910	0.588350	0.176050
N3341	N334	0.918040	0.576600	0.184300
N3351	N335	0.757520	0.616700	0.042580
N3361	N336	0.755420	0.613040	0.006560
N3371	N337	0.032650	0.599290	0.258250
N3381	N338	0.011260	0.642500	0.263820
N3391	N339	0.919240	0.583500	0.317900
N3401	N340	0.897830	0.628950	0.318910
N3411	N341	0.783590	0.544030	0.490410
N3421	N342	0.754180	0.569180	0.464260
N3431	N343	0.191480	0.621100	0.228400
N3441	N344	0.181310	0.596710	0.275890
N3451	N345	0.856690	0.588350	0.378910
N3461	N346	0.821060	0.576600	0.418040
N3471	N347	0.083200	0.616700	0.257520
N3481	N348	0.124980	0.613040	0.255420
N3491	N349	0.609810	0.258250	0.599290
N3501	N350	0.582420	0.263820	0.642500
N3511	N351	0.679360	0.317900	0.583500
N3521	N352	0.654310	0.318910	0.628950
N3531	N353	0.681970	0.490410	0.544030
N3541	N354	0.712380	0.464260	0.569180
N3551	N355	0.459020	0.228400	0.621100
N3561	N356	0.446090	0.275890	0.596710
N3571	N357	0.676050	0.378910	0.588350
N3581	N358	0.684300	0.418040	0.576600
N3591	N359	0.542580	0.257520	0.616700
N3601	N360	0.506560	0.255420	0.613040
N3611	N361	0.099290	0.532650	0.109810
N3621	N362	0.142500	0.511260	0.082420
N3631	N363	0.083500	0.419240	0.179360
N3641	N364	0.128950	0.397830	0.154310
N3651	N365	0.044030	0.283590	0.181970
N3661	N366	0.069180	0.254180	0.212380
N3671	N367	0.121100	0.691480	0.959020
N3681	N368	0.096710	0.681310	0.946090
N3691	N369	0.088350	0.356690	0.176050
N3701	N370	0.076600	0.321060	0.184300
N3711	N371	0.116700	0.583200	0.042580
N3721	N372	0.113040	0.624980	0.006560
N3731	N373	0.758250	0.109810	0.532650
N3741	N374	0.763820	0.082420	0.511260
N3751	N375	0.817900	0.179360	0.419240
N3761	N376	0.818910	0.154310	0.397830
N3771	N377	0.990410	0.181970	0.283590
N3781	N378	0.964260	0.212380	0.254180
N3791	N379	0.728400	0.959020	0.691480
N3801	N380	0.775890	0.946090	0.681310
N3811	N381	0.878910	0.176050	0.356690
N3821	N382	0.918040	0.184300	0.321060
N3831	N383	0.757520	0.042580	0.583200
N3841	N384	0.755420	0.006560	0.624980
N3851	N385	0.032650	0.258250	0.109810
N3861	N386	0.011260	0.263820	0.082420
N3871	N387	0.919240	0.317900	0.179360
N3881	N388	0.897830	0.318910	0.154310
N3891	N389	0.783590	0.490410	0.181970
N3901	N390	0.754180	0.464260	0.212380
N3911	N391	0.191480	0.228400	0.959020
N3921	N392	0.181310	0.275890	0.946090
N3931	N393	0.856690	0.378910	0.176050
N3941	N394	0.821060	0.418040	0.184300
N3951	N395	0.083200	0.257520	0.042580
N3961	N396	0.124980	0.255420	0.006560
N3971	N397	0.609810	0.599290	0.532650
N3981	N398	0.582420	0.642500	0.511260
N3991	N399	0.679360	0.583500	0.419240
N4001	N400	0.654310	0.628950	0.397830
N4011	N401	0.681970	0.544030	0.283590
N4021	N402	0.712380	0.569180	0.254180
N4031	N403	0.459020	0.621100	0.691480
N4041	N404	0.446090	0.596710	0.681310
N4051	N405	0.676050	0.588350	0.356690
N4061	N406	0.684300	0.576600	0.321060
N4071	N407	0.542580	0.616700	0.583200
N4081	N408	0.506560	0.613040	0.624980
N4091	N409	0.099290	0.109810	0.258250
N4101	N410	0.142500	0.082420	0.263820
N4111	N411	0.083500	0.179360	0.317900
N4121	N412	0.128950	0.154310	0.318910
N4131	N413	0.044030	0.181970	0.490410
N4141	N414	0.069180	0.212380	0.464260
N4151	N415	0.121100	0.959020	0.228400
N4161	N416	0.096710	0.946090	0.275890
N4171	N417	0.088350	0.176050	0.378910
N4181	N418	0.076600	0.184300	0.418040
N4191	N419	0.116700	0.042580	0.257520
N4201	N420	0.113040	0.006560	0.255420
N4211	N421	0.758250	0.532650	0.599290
N4221	N422	0.763820	0.511260	0.642500
N4231	N423	0.817900	0.419240	0.583500
N4241	N424	0.818910	0.397830	0.628950
N4251	N425	0.990410	0.283590	0.544030
N4261	N426	0.964260	0.254180	0.569180
N4271	N427	0.728400	0.691480	0.621100
N4281	N428	0.775890	0.681310	0.596710
N4291	N429	0.878910	0.356690	0.588350
N4301	N430	0.918040	0.321060	0.576600
N4311	N431	0.757520	0.583200	0.616700
N4321	N432	0.755420	0.624980	0.613040
N4331	N433	0.890190	0.967350	0.900710
N4341	N434	0.917580	0.988740	0.857500
N4351	N435	0.820640	0.080760	0.916500
N4361	N436	0.845690	0.102170	0.871050
N4371	N437	0.818030	0.216410	0.955970
N4381	N438	0.787620	0.245820	0.930820
N4391	N439	0.040980	0.808520	0.878900
N4401	N440	0.053910	0.818690	0.903290
N4411	N441	0.823950	0.143310	0.911650
N4421	N442	0.815700	0.178940	0.923400
N4431	N443	0.957420	0.916800	0.883300
N4441	N444	0.993440	0.875020	0.886960
N4451	N445	0.467350	0.390190	0.241750
N4461	N446	0.488740	0.417580	0.236180
N4471	N447	0.580760	0.320640	0.182100
N4481	N448	0.602170	0.345690	0.181090
N4491	N449	0.716410	0.318030	0.009590
N4501	N450	0.745820	0.287620	0.035740
N4511	N451	0.308520	0.540980	0.271600
N4521	N452	0.318690	0.553910	0.224110
N4531	N453	0.643310	0.323950	0.121090
N4541	N454	0.678940	0.315700	0.081960
N4551	N455	0.416800	0.457420	0.242480
N4561	N456	0.375020	0.493440	0.244580
N4571	N457	0.741750	0.900710	0.967350
N4581	N458	0.736180	0.857500	0.988740
N4591	N459	0.682100	0.916500	0.080760
N4601	N460	0.681090	0.871050	0.102170
N4611	N461	0.509590	0.955970	0.216410
N4621	N462	0.535740	0.930820	0.245820
N4631	N463	0.771600	0.878900	0.808520
N4641	N464	0.724110	0.903290	0.818690
N4651	N465	0.621090	0.911650	0.143310
N4661	N466	0.581960	0.923400	0.178940
N4671	N467	0.742480	0.883300	0.916800
N4681	N468	0.744580	0.886960	0.875020
N4691	N469	0.400710	0.241750	0.390190
N4701	N470	0.357500	0.236180	0.417580
N4711	N471	0.416500	0.182100	0.320640
N4721	N472	0.371050	0.181090	0.345690
N4731	N473	0.455970	0.009590	0.318030
N4741	N474	0.430820	0.035740	0.287620
N4751	N475	0.378900	0.271600	0.540980
N4761	N476	0.403290	0.224110	0.553910
N4771	N477	0.411650	0.121090	0.323950
N4781	N478	0.423400	0.081960	0.315700
N4791	N479	0.383300	0.242480	0.457420
N4801	N480	0.386960	0.244580	0.493440
N4811	N481	0.400710	0.967350	0.241750
N4821	N482	0.357500	0.988740	0.236180
N4831	N483	0.416500	0.080760	0.182100
N4841	N484	0.371050	0.102170	0.181090
N4851	N485	0.455970	0.216410	0.009590
N4861	N486	0.430820	0.245820	0.035740
N4871	N487	0.378900	0.808520	0.271600
N4881	N488	0.403290	0.818690	0.224110
N4891	N489	0.411650	0.143310	0.121090
N4901	N490	0.423400	0.178940	0.081960
N4911	N491	0.383300	0.916800	0.242480
N4921	N492	0.386960	0.875020	0.244580
N4931	N493	0.741750	0.390190	0.900710
N4941	N494	0.736180	0.417580	0.857500
N4951	N495	0.682100	0.320640	0.916500
N4961	N496	0.681090	0.345690	0.871050
N4971	N497	0.509590	0.318030	0.955970
N4981	N498	0.535740	0.287620	0.930820
N4991	N499	0.771600	0.540980	0.878900
N5001	N500	0.724110	0.553910	0.903290
N5011	N501	0.621090	0.323950	0.911650
N5021	N502	0.581960	0.315700	0.923400
N5031	N503	0.742480	0.457420	0.883300
N5041	N504	0.744580	0.493440	0.886960
N5051	N505	0.467350	0.900710	0.390190
N5061	N506	0.488740	0.857500	0.417580
N5071	N507	0.580760	0.916500	0.320640
N5081	N508	0.602170	0.871050	0.345690
N5091	N509	0.716410	0.955970	0.318030
N5101	N510	0.745820	0.930820	0.287620
N5111	N511	0.308520	0.878900	0.540980
N5121	N512	0.318690	0.903290	0.553910
N5131	N513	0.643310	0.911650	0.323950
N5141	N514	0.678940	0.923400	0.315700
N5151	N515	0.416800	0.883300	0.457420
N5161	N516	0.375020	0.886960	0.493440
N5171	N517	0.890190	0.241750	0.967350
N5181	N518	0.917580	0.236180	0.988740
N5191	N519	0.820640	0.182100	0.080760
N5201	N520	0.845690	0.181090	0.102170
N5211	N521	0.818030	0.009590	0.216410
N5221	N522	0.787620	0.035740	0.245820
N5231	N523	0.040980	0.271600	0.808520
N5241	N524	0.053910	0.224110	0.818690
N5251	N525	0.823950	0.121090	0.143310
N5261	N526	0.815700	0.081960	0.178940
N5271	N527	0.957420	0.242480	0.916800
N5281	N528	0.993440	0.244580	0.875020
N5291	N529	0.741750	0.967350	0.390190
N5301	N530	0.736180	0.988740	0.417580
N5311	N531	0.682100	0.080760	0.320640
N5321	N532	0.681090	0.102170	0.345690
N5331	N533	0.509590	0.216410	0.318030
N5341	N534	0.535740	0.245820	0.287620
N5351	N535	0.771600	0.808520	0.540980
N5361	N536	0.724110	0.818690	0.553910
N5371	N537	0.621090	0.143310	0.323950
N5381	N538	0.581960	0.178940	0.315700
N5391	N539	0.742480	0.916800	0.457420
N5401	N540	0.744580	0.875020	0.493440
N5411	N541	0.400710	0.390190	0.967350
N5421	N542	0.357500	0.417580	0.988740
N5431	N543	0.416500	0.320640	0.080760
N5441	N544	0.371050	0.345690	0.102170
N5451	N545	0.455970	0.318030	0.216410
N5461	N546	0.430820	0.287620	0.245820
N5471	N547	0.378900	0.540980	0.808520
N5481	N548	0.403290	0.553910	0.818690
N5491	N549	0.411650	0.323950	0.143310
N5501	N550	0.423400	0.315700	0.178940
N5511	N551	0.383300	0.457420	0.916800
N5521	N552	0.386960	0.493440	0.875020
N5531	N553	0.890190	0.900710	0.241750
N5541	N554	0.917580	0.857500	0.236180
N5551	N555	0.820640	0.916500	0.182100
N5561	N556	0.845690	0.871050	0.181090
N5571	N557	0.818030	0.955970	0.009590
N5581	N558	0.787620	0.930820	0.035740
N5591	N559	0.040980	0.878900	0.271600
N5601	N560	0.053910	0.903290	0.224110
N5611	N561	0.823950	0.911650	0.121090
N5621	N562	0.815700	0.923400	0.081960
N5631	N563	0.957420	0.883300	0.242480
N5641	N564	0.993440	0.886960	0.244580
N5651	N565	0.467350	0.241750	0.900710
N5661	N566	0.488740	0.236180	0.857500
N5671	N567	0.580760	0.182100	0.916500
N5681	N568	0.602170	0.181090	0.871050
N5691	N569	0.716410	0.009590	0.955970
N5701	N570	0.745820	0.035740	0.930820
N5711	N571	0.308520	0.271600	0.878900
N5721	N572	0.318690	0.224110	0.903290
N5731	N573	0.643310	0.121090	0.911650
N5741	N574	0.678940	0.081960	0.923400
N5751	N575	0.416800	0.242480	0.883300
N5761	N576	0.375020	0.244580	0.886960
