data_YINCIJ_clean_PM
_symmetry_space_group_name_H-M	'P1'
_cell_length_a	9.515000
_cell_length_b	17.546600
_cell_length_c	17.546600
_cell_angle_alpha	103.604000
_cell_angle_beta	102.773000
_cell_angle_gamma	77.226600
_symmetry_Int_Tables_number 1

loop_
_symmetry_equiv_pos_as_xyz
'x,y,z'

loop_
_atom_site_label
_atom_site_type_symbol
_atom_site_fract_x
_atom_site_fract_y
_atom_site_fract_z
Mn11	Mn1	0.064990	0.820660	0.312960
Mn21	Mn2	0.500000	0.500000	0.000000
Mn31	Mn3	0.935010	0.179340	0.687040
Mn41	Mn4	0.564990	0.687040	0.179340
Mn51	Mn5	0.000000	0.000000	0.500000
Mn61	Mn6	0.435010	0.312960	0.820660
H11	H1	0.933800	0.837300	0.631100
H21	H2	0.630900	0.682200	0.589600
H31	H3	0.176900	0.845000	0.606000
H41	H4	0.369100	0.317800	0.410400
H51	H5	0.679200	0.037600	0.910200
H61	H6	0.815100	0.283200	0.206400
H71	H7	0.018100	0.477400	0.727400
H81	H8	0.684900	0.206400	0.283200
H91	H9	0.819400	0.143300	0.061700
H101	H10	0.433800	0.368900	0.162700
H111	H11	0.319400	0.938300	0.856700
H121	H12	0.481900	0.727400	0.477400
H131	H13	0.073500	0.210000	0.158600
H141	H14	0.823100	0.155000	0.394000
H151	H15	0.323100	0.606000	0.845000
H161	H16	0.197000	0.034500	0.783500
H171	H17	0.426500	0.158600	0.210000
H181	H18	0.082300	0.984800	0.178000
H191	H19	0.444300	0.864400	0.160000
H201	H20	0.315100	0.793600	0.716800
H211	H21	0.184900	0.716800	0.793600
H221	H22	0.066200	0.162700	0.368900
H231	H23	0.573500	0.841400	0.790000
H241	H24	0.680600	0.061700	0.143300
H251	H25	0.303000	0.783500	0.034500
H261	H26	0.803000	0.965500	0.216500
H271	H27	0.566200	0.631100	0.837300
H281	H28	0.518100	0.272600	0.522600
H291	H29	0.981900	0.522600	0.272600
H301	H30	0.055700	0.160000	0.864400
H311	H31	0.555700	0.135600	0.840000
H321	H32	0.676900	0.394000	0.155000
H331	H33	0.697000	0.216500	0.965500
H341	H34	0.944300	0.840000	0.135600
H351	H35	0.320800	0.962400	0.089800
H361	H36	0.179200	0.089800	0.962400
H371	H37	0.417700	0.178000	0.984800
H381	H38	0.130900	0.410400	0.317800
H391	H39	0.926500	0.790000	0.841400
H401	H40	0.180600	0.856700	0.938300
H411	H41	0.582300	0.822000	0.015200
H421	H42	0.917700	0.015200	0.822000
H431	H43	0.869100	0.589600	0.682200
H441	H44	0.820800	0.910200	0.037600
C11	C1	0.633200	0.022300	0.147700
C21	C2	0.925400	0.936300	0.719100
C31	C3	0.150000	0.669000	0.780800
C41	C4	0.777500	0.186300	0.543100
C51	C5	0.425400	0.280900	0.063700
C61	C6	0.183800	0.530400	0.790600
C71	C7	0.266300	0.811000	0.602000
C81	C8	0.781400	0.240800	0.841600
C91	C9	0.430200	0.330100	0.004500
C101	C10	0.233700	0.602000	0.811000
C111	C11	0.449200	0.741900	0.525900
C121	C12	0.574600	0.719100	0.936300
C131	C13	0.133200	0.852300	0.977700
C141	C14	0.932500	0.802700	0.732100
C151	C15	0.489000	0.021300	0.110700
C161	C16	0.982800	0.336700	0.267500
C171	C17	0.538600	0.713000	0.592600
C181	C18	0.222500	0.813700	0.456900
C191	C19	0.706500	0.964500	0.191100
C201	C20	0.850000	0.331000	0.219200
C211	C21	0.650000	0.219200	0.331000
C221	C22	0.417600	0.962800	0.115000
C231	C23	0.866800	0.147700	0.022300
C241	C24	0.923000	0.906600	0.844200
C251	C25	0.293500	0.035500	0.808900
C261	C26	0.961400	0.592600	0.713000
C271	C27	0.635900	0.904800	0.197000
C281	C28	0.008400	0.157600	0.904600
C291	C29	0.766300	0.398000	0.189000
C301	C30	0.431100	0.314900	0.144700
C311	C31	0.135900	0.803000	0.095200
C321	C32	0.482800	0.732500	0.663300
C331	C33	0.722500	0.543100	0.186300
C341	C34	0.949200	0.474100	0.258100
C351	C35	0.931100	0.855300	0.685100
C361	C36	0.050800	0.525900	0.741900
C371	C37	0.017200	0.663300	0.732500
C381	C38	0.316200	0.790600	0.530400
C391	C39	0.508400	0.095400	0.842400
C401	C40	0.921400	0.961500	0.798700
C411	C41	0.423000	0.155800	0.093400
C421	C42	0.038600	0.407400	0.287000
C431	C43	0.582400	0.037200	0.885000
C441	C44	0.082400	0.115000	0.962800
C451	C45	0.011000	0.110700	0.021300
C461	C46	0.068900	0.144700	0.314900
C471	C47	0.569800	0.669900	0.995500
C481	C48	0.350000	0.780800	0.669000
C491	C49	0.568900	0.685100	0.855300
C501	C50	0.517200	0.267500	0.336700
C511	C51	0.427200	0.189400	0.173600
C521	C52	0.072800	0.173600	0.189400
C531	C53	0.491600	0.904600	0.157600
C541	C54	0.364100	0.095200	0.803000
C551	C55	0.067500	0.197300	0.267900
C561	C56	0.461400	0.287000	0.407400
C571	C57	0.577000	0.844200	0.906600
C581	C58	0.816200	0.469600	0.209400
C591	C59	0.572800	0.810600	0.826400
C601	C60	0.917600	0.885000	0.037200
C611	C61	0.578600	0.798700	0.961500
C621	C62	0.078600	0.038500	0.201300
C631	C63	0.989000	0.889300	0.978700
C641	C64	0.069800	0.004500	0.330100
C651	C65	0.511000	0.978700	0.889300
C661	C66	0.281400	0.158400	0.759200
C671	C67	0.683800	0.209400	0.469600
C681	C68	0.077000	0.093400	0.155800
C691	C69	0.366800	0.977700	0.852300
C701	C70	0.074600	0.063700	0.280900
C711	C71	0.718600	0.841600	0.240800
C721	C72	0.218600	0.759200	0.158400
C731	C73	0.421400	0.201300	0.038500
C741	C74	0.432500	0.267900	0.197300
C751	C75	0.733700	0.189000	0.398000
C761	C76	0.567500	0.732100	0.802700
C771	C77	0.206500	0.808900	0.035500
C781	C78	0.991600	0.842400	0.095400
C791	C79	0.927200	0.826400	0.810600
C801	C80	0.930200	0.995500	0.669900
C811	C81	0.550800	0.258100	0.474100
C821	C82	0.864100	0.197000	0.904800
C831	C83	0.277500	0.456900	0.813700
C841	C84	0.793500	0.191100	0.964500
O11	O1	0.346100	0.725600	0.151800
O21	O2	0.341400	0.214470	0.756130
O31	O3	0.153900	0.151800	0.725600
O41	O4	0.896400	0.136550	0.541050
O51	O5	0.068900	0.276240	0.305760
O61	O6	0.762300	0.608290	0.218910
O71	O7	0.915600	0.936320	0.923680
O81	O8	0.396400	0.458950	0.863450
O91	O9	0.092100	0.932150	0.297450
O101	O10	0.658600	0.785530	0.243870
O111	O11	0.431100	0.305760	0.276240
O121	O12	0.158600	0.756130	0.214470
O131	O13	0.907900	0.067850	0.702550
O141	O14	0.584400	0.923680	0.936320
O151	O15	0.737700	0.218910	0.608290
O161	O16	0.103600	0.863450	0.458950
O171	O17	0.262300	0.781090	0.391710
O181	O18	0.407900	0.297450	0.932150
O191	O19	0.952800	0.968160	0.600440
O201	O20	0.568900	0.694240	0.723760
O211	O21	0.084400	0.063680	0.076320
O221	O22	0.592100	0.702550	0.067850
O231	O23	0.237700	0.391710	0.781090
O241	O24	0.846100	0.848200	0.274400
O251	O25	0.547200	0.600440	0.968160
O261	O26	0.047200	0.031840	0.399560
O271	O27	0.653900	0.274400	0.848200
O281	O28	0.931100	0.723760	0.694240
O291	O29	0.415600	0.076320	0.063680
O301	O30	0.841400	0.243870	0.785530
O311	O31	0.452800	0.399560	0.031840
O321	O32	0.603600	0.541050	0.136550
