data_YINCOP_clean_PM
_symmetry_space_group_name_H-M	'P1'
_cell_length_a	9.386500
_cell_length_b	17.446900
_cell_length_c	17.446900
_cell_angle_alpha	104.365000
_cell_angle_beta	102.823000
_cell_angle_gamma	77.176800
_symmetry_Int_Tables_number 1

loop_
_symmetry_equiv_pos_as_xyz
'x,y,z'

loop_
_atom_site_label
_atom_site_type_symbol
_atom_site_fract_x
_atom_site_fract_y
_atom_site_fract_z
Mn11	Mn1	0.440670	0.681480	0.186780
Mn21	Mn2	0.559330	0.318520	0.813220
Mn31	Mn3	0.059330	0.186780	0.681480
Mn41	Mn4	0.500000	0.500000	0.000000
Mn51	Mn5	0.940670	0.813220	0.318520
Mn61	Mn6	0.000000	0.000000	0.500000
H11	H1	0.320700	0.413900	0.535100
H21	H2	0.015800	0.779200	0.023000
H31	H3	0.174500	0.894200	0.660000
H41	H4	0.426000	0.337600	0.124200
H51	H5	0.064400	0.631600	0.340000
H61	H6	0.189200	0.708600	0.785000
H71	H7	0.429300	0.290100	0.338700
H81	H8	0.870100	0.825200	0.912400
H91	H9	0.629900	0.912400	0.825200
H101	H10	0.129900	0.174800	0.087600
H111	H11	0.699000	0.531300	0.274500
H121	H12	0.935600	0.368400	0.660000
H131	H13	0.325500	0.660000	0.894200
H141	H14	0.820700	0.464900	0.586100
H151	H15	0.570700	0.709900	0.661300
H161	H16	0.812300	0.434800	0.348000
H171	H17	0.515800	0.977000	0.220800
H181	H18	0.914900	0.680700	0.483900
H191	H19	0.179300	0.535100	0.413900
H201	H20	0.310800	0.785000	0.708600
H211	H21	0.187700	0.565200	0.652000
H221	H22	0.301000	0.468700	0.725500
H231	H23	0.370100	0.087600	0.174800
H241	H24	0.074000	0.124200	0.337600
H251	H25	0.689200	0.215000	0.291400
H261	H26	0.825500	0.105800	0.340000
H271	H27	0.687700	0.348000	0.434800
H281	H28	0.585100	0.483900	0.680700
H291	H29	0.564400	0.660000	0.368400
H301	H30	0.085100	0.319300	0.516100
H311	H31	0.926000	0.875800	0.662400
H321	H32	0.414900	0.516100	0.319300
H331	H33	0.674500	0.340000	0.105800
H341	H34	0.435600	0.340000	0.631600
H351	H35	0.484200	0.023000	0.779200
H361	H36	0.984200	0.220800	0.977000
H371	H37	0.801000	0.274500	0.531300
H381	H38	0.929300	0.661300	0.709900
H391	H39	0.574000	0.662400	0.875800
H401	H40	0.199000	0.725500	0.468700
H411	H41	0.810800	0.291400	0.215000
H421	H42	0.070700	0.338700	0.290100
H431	H43	0.679300	0.586100	0.464900
H441	H44	0.312300	0.652000	0.565200
C11	C1	0.720100	0.310820	0.954980
C21	C2	0.449700	0.974540	0.764860
C31	C3	0.079200	0.165500	0.496300
C41	C4	0.654300	0.166500	0.276700
C51	C5	0.369500	0.698680	0.407940
C61	C6	0.279900	0.689180	0.045020
C71	C7	0.933300	0.774110	0.698890
C81	C8	0.036500	0.206210	0.090790
C91	C9	0.708100	0.256060	0.656740
C101	C10	0.993100	0.524360	0.612160
C111	C11	0.578700	0.564040	0.785680
C121	C12	0.186500	0.715290	0.970230
C131	C13	0.429500	0.326290	0.307510
C141	C14	0.073900	0.340690	0.406710
C151	C15	0.920800	0.834500	0.503700
C161	C16	0.513800	0.657820	0.407800
C171	C17	0.073300	0.179130	0.355170
C181	C18	0.506900	0.612160	0.524360
C191	C19	0.963500	0.793790	0.909210
C201	C20	0.791900	0.656740	0.256060
C211	C21	0.154300	0.723300	0.833500
C221	C22	0.204900	0.467840	0.697000
C231	C23	0.869500	0.592060	0.301320
C241	C24	0.862600	0.474520	0.346280
C251	C25	0.345700	0.833500	0.723300
C261	C26	0.573300	0.644830	0.820870
C271	C27	0.006900	0.475640	0.387840
C281	C28	0.493100	0.387840	0.475640
C291	C29	0.070500	0.307510	0.326290
C301	C30	0.582700	0.614090	0.465430
C311	C31	0.917300	0.465430	0.614090
C321	C32	0.264700	0.898580	0.694420
C331	C33	0.078700	0.214320	0.435960
C341	C34	0.813500	0.284710	0.029770
C351	C35	0.986200	0.407800	0.657820
C361	C36	0.130500	0.407940	0.698680
C371	C37	0.630500	0.301320	0.592060
C381	C38	0.463500	0.090790	0.206210
C391	C39	0.486200	0.342180	0.592200
C401	C40	0.420800	0.496300	0.165500
C411	C41	0.295100	0.697000	0.467840
C421	C42	0.419900	0.461800	0.295400
C431	C43	0.637400	0.346280	0.474520
C441	C44	0.417300	0.385910	0.534570
C451	C45	0.929500	0.692490	0.673710
C461	C46	0.573900	0.593290	0.659310
C471	C47	0.845700	0.276700	0.166500
C481	C48	0.921300	0.785680	0.564040
C491	C49	0.313500	0.970230	0.715290
C501	C50	0.421300	0.435960	0.214320
C511	C51	0.013800	0.592200	0.342180
C521	C52	0.795100	0.532160	0.303000
C531	C53	0.764700	0.305580	0.101420
C541	C54	0.519900	0.160370	0.225430
C551	C55	0.050300	0.764860	0.974540
C561	C56	0.570500	0.673710	0.692490
C571	C57	0.550300	0.025460	0.235140
C581	C58	0.926100	0.659310	0.593290
C591	C59	0.433300	0.301110	0.225890
C601	C60	0.291900	0.743940	0.343260
C611	C61	0.704900	0.303000	0.532160
C621	C62	0.735300	0.101420	0.305580
C631	C63	0.066700	0.225890	0.301110
C641	C64	0.426700	0.355170	0.179130
C651	C65	0.137400	0.525480	0.653720
C661	C66	0.926700	0.820870	0.644830
C671	C67	0.579200	0.503700	0.834500
C681	C68	0.220100	0.045020	0.689180
C691	C69	0.426100	0.406710	0.340690
C701	C70	0.919900	0.704600	0.538200
C711	C71	0.980100	0.225430	0.160370
C721	C72	0.686500	0.029770	0.284710
C731	C73	0.580100	0.538200	0.704600
C741	C74	0.949700	0.235140	0.025460
C751	C75	0.480100	0.839630	0.774570
C761	C76	0.019900	0.774570	0.839630
C771	C77	0.779900	0.954980	0.310820
C781	C78	0.536500	0.909210	0.793790
C791	C79	0.080100	0.295400	0.461800
C801	C80	0.362600	0.653720	0.525480
C811	C81	0.566700	0.698890	0.774110
C821	C82	0.235300	0.694420	0.898580
C831	C83	0.082700	0.534570	0.385910
C841	C84	0.208100	0.343260	0.743940
O11	O1	0.931800	0.907390	0.531790
O21	O2	0.143200	0.289560	0.745340
O31	O3	0.909400	0.800120	0.431580
O41	O4	0.766600	0.281480	0.889420
O51	O5	0.409400	0.568420	0.199880
O61	O6	0.337200	0.349650	0.781710
O71	O7	0.932600	0.812070	0.778770
O81	O8	0.420400	0.436650	0.421530
O91	O9	0.162800	0.781710	0.349650
O101	O10	0.431800	0.468210	0.092610
O111	O11	0.662800	0.650350	0.218290
O121	O12	0.568200	0.531790	0.907390
O131	O13	0.904000	0.957820	0.357780
O141	O14	0.096000	0.042180	0.642220
O151	O15	0.920400	0.578470	0.563350
O161	O16	0.733400	0.889420	0.281480
O171	O17	0.067400	0.187930	0.221230
O181	O18	0.567400	0.778770	0.812070
O191	O19	0.579600	0.563350	0.578470
O201	O20	0.356800	0.745340	0.289560
O211	O21	0.596000	0.357780	0.957820
O221	O22	0.068200	0.092610	0.468210
O231	O23	0.079600	0.421530	0.436650
O241	O24	0.432600	0.221230	0.187930
O251	O25	0.090600	0.199880	0.568420
O261	O26	0.404000	0.642220	0.042180
O271	O27	0.590600	0.431580	0.800120
O281	O28	0.856800	0.710440	0.254660
O291	O29	0.266600	0.110580	0.718520
O301	O30	0.643200	0.254660	0.710440
O311	O31	0.233400	0.718520	0.110580
O321	O32	0.837200	0.218290	0.650350
