data_YINXIE_clean_PM
_symmetry_space_group_name_H-M	'P1'
_cell_length_a	11.192000
_cell_length_b	12.401000
_cell_length_c	12.566000
_cell_angle_alpha	64.424000
_cell_angle_beta	75.586000
_cell_angle_gamma	80.446000
_symmetry_Int_Tables_number 1

loop_
_symmetry_equiv_pos_as_xyz
'x,y,z'

loop_
_atom_site_label
_atom_site_type_symbol
_atom_site_fract_x
_atom_site_fract_y
_atom_site_fract_z
Cu11	Cu1	0.377340	0.060040	0.411820
C11	C1	0.006600	0.078700	0.878000
C21	C2	0.895000	0.029900	0.949900
C31	C3	0.888200	0.950900	0.070500
C41	C4	0.013400	0.164000	0.745500
H11	H1	0.930400	0.186200	0.729200
H21	H2	0.050000	0.236500	0.729300
C51	C5	0.189000	0.143900	0.583400
H31	H3	0.228600	0.212000	0.564100
C61	C6	0.138500	0.985000	0.588000
H41	H4	0.139600	0.919600	0.569700
C71	C7	0.778700	0.064700	0.897900
H51	H5	0.706700	0.048900	0.962900
H61	H6	0.775300	0.149800	0.847000
C81	C8	0.727000	0.034900	0.729900
H71	H7	0.696100	0.112700	0.688900
C91	C9	0.783600	0.851100	0.783400
H81	H8	0.799200	0.774900	0.783800
C101	C10	0.767900	0.894800	0.144600
H91	H9	0.727100	0.877200	0.094700
H101	H10	0.785100	0.819900	0.210400
C111	C11	0.576200	0.952700	0.269400
H111	H11	0.537100	0.881800	0.299600
C121	C12	0.619500	0.127300	0.230500
H121	H12	0.613300	0.203000	0.230400
C131	C13	0.558200	0.337600	0.411500
C141	C14	0.664600	0.362600	0.433100
H131	H13	0.720300	0.300400	0.468600
C151	C15	0.687400	0.479900	0.401900
C161	C16	0.602200	0.572200	0.350000
H141	H14	0.616900	0.651000	0.329700
C171	C17	0.496300	0.548300	0.328300
C181	C18	0.475000	0.430800	0.359700
H151	H15	0.403800	0.413900	0.345900
C191	C19	0.534900	0.209300	0.447300
C201	C20	0.797900	0.512100	0.426300
C211	C21	0.406000	0.651600	0.272900
N11	N1	0.226300	0.066500	0.532800
N21	N2	0.086800	0.109000	0.665300
N31	N3	0.052800	0.007300	0.668800
N41	N4	0.729000	0.943800	0.700600
N51	N5	0.776200	0.997400	0.827400
N61	N6	0.813000	0.879100	0.864200
N71	N7	0.532600	0.047200	0.295100
N81	N8	0.685000	0.975900	0.193500
N91	N9	0.714000	0.087400	0.167600
O11	O1	0.436800	0.193000	0.423900
O21	O2	0.611500	0.129600	0.495100
O31	O3	0.878200	0.427000	0.469300
O41	O4	0.809500	0.616900	0.406300
O51	O5	0.434400	0.754500	0.248000
O61	O6	0.311700	0.629300	0.252200
Cu21	Cu2	0.622660	0.939960	0.588180
C221	C22	0.993400	0.921300	0.122000
C231	C23	0.105000	0.970100	0.050100
C241	C24	0.111800	0.049100	0.929500
C251	C25	0.986600	0.836000	0.254500
H161	H16	0.069600	0.813800	0.270800
H171	H17	0.950000	0.763500	0.270700
C261	C26	0.811000	0.856100	0.416600
H181	H18	0.771400	0.788000	0.435900
C271	C27	0.861500	0.015000	0.412000
H191	H19	0.860400	0.080400	0.430300
C281	C28	0.221300	0.935300	0.102100
H201	H20	0.293300	0.951100	0.037100
H211	H21	0.224700	0.850200	0.153000
C291	C29	0.273000	0.965100	0.270100
H221	H22	0.303900	0.887300	0.311100
C301	C30	0.216400	0.148900	0.216600
H231	H23	0.200800	0.225100	0.216200
C311	C31	0.232100	0.105200	0.855400
H241	H24	0.272900	0.122800	0.905300
H251	H25	0.214900	0.180100	0.789600
C321	C32	0.423800	0.047300	0.730600
H261	H26	0.462900	0.118200	0.700400
C331	C33	0.380500	0.872700	0.769500
H271	H27	0.386700	0.797000	0.769600
C341	C34	0.441800	0.662400	0.588500
C351	C35	0.335400	0.637400	0.566900
H281	H28	0.279700	0.699600	0.531400
C361	C36	0.312600	0.520100	0.598100
C371	C37	0.397800	0.427800	0.650000
H291	H29	0.383100	0.349000	0.670300
C381	C38	0.503700	0.451700	0.671700
C391	C39	0.525000	0.569200	0.640300
H301	H30	0.596200	0.586100	0.654100
C401	C40	0.465100	0.790700	0.552700
C411	C41	0.202100	0.487900	0.573700
C421	C42	0.594000	0.348400	0.727100
N101	N10	0.773700	0.933500	0.467200
N111	N11	0.913200	0.891000	0.334700
N121	N12	0.947200	0.992700	0.331200
N131	N13	0.271000	0.056200	0.299400
N141	N14	0.223800	0.002600	0.172600
N151	N15	0.187000	0.120900	0.135800
N161	N16	0.467400	0.952800	0.704900
N171	N17	0.315000	0.024100	0.806500
N181	N18	0.286000	0.912600	0.832400
O71	O7	0.563200	0.807000	0.576100
O81	O8	0.388500	0.870400	0.504900
O91	O9	0.121800	0.573000	0.530700
O101	O10	0.190500	0.383100	0.593700
O111	O11	0.565600	0.245500	0.752000
O121	O12	0.688300	0.370700	0.747800
Cu31	Cu3	0.000000	0.500000	0.500000
