data_YITHOA01_clean_PM
_symmetry_space_group_name_H-M	'P1'
_cell_length_a	21.960000
_cell_length_b	7.655000
_cell_length_c	6.167000
_cell_angle_alpha	90.000000
_cell_angle_beta	91.470000
_cell_angle_gamma	90.000000
_symmetry_Int_Tables_number 1

loop_
_symmetry_equiv_pos_as_xyz
'x,y,z'

loop_
_atom_site_label
_atom_site_type_symbol
_atom_site_fract_x
_atom_site_fract_y
_atom_site_fract_z
Ce11	Ce1	0.645340	0.254240	0.050180
O11	O1	0.544060	0.362200	0.885600
O21	O2	0.537580	0.144500	0.148300
O31	O3	0.655510	0.203700	0.653500
O41	O4	0.659390	0.045200	0.353200
O51	O5	0.637650	0.944600	0.905500
H11	H1	0.606600	0.884700	0.944100
O61	O6	0.762970	0.892000	0.717200
H21	H2	0.759800	0.980300	0.800000
O71	O7	0.664380	0.539800	0.862300
O81	O8	0.749960	0.647700	0.005500
C11	C1	0.655700	0.061200	0.554900
C21	C2	0.650900	0.894900	0.688700
H31	H3	0.617300	0.823700	0.629800
C31	C3	0.710000	0.786700	0.687400
H41	H4	0.712200	0.728400	0.546400
C41	C4	0.707300	0.646900	0.862200
Ce21	Ce2	0.145340	0.754240	0.050180
O91	O9	0.044060	0.862200	0.885600
O101	O10	0.037580	0.644500	0.148300
O111	O11	0.155510	0.703700	0.653500
O121	O12	0.159390	0.545200	0.353200
O131	O13	0.137650	0.444600	0.905500
H51	H5	0.106600	0.384700	0.944100
O141	O14	0.262970	0.392000	0.717200
H61	H6	0.259800	0.480300	0.800000
O151	O15	0.164380	0.039800	0.862300
O161	O16	0.249960	0.147700	0.005500
C51	C5	0.155700	0.561200	0.554900
C61	C6	0.150900	0.394900	0.688700
H71	H7	0.117300	0.323700	0.629800
C71	C7	0.210000	0.286700	0.687400
H81	H8	0.212200	0.228400	0.546400
C81	C8	0.207300	0.146900	0.862200
Ce31	Ce3	0.354660	0.254240	0.949820
O171	O17	0.455940	0.362200	0.114400
O181	O18	0.462420	0.144500	0.851700
O191	O19	0.344490	0.203700	0.346500
O201	O20	0.340610	0.045200	0.646800
O211	O21	0.362350	0.944600	0.094500
H91	H9	0.393400	0.884700	0.055900
O221	O22	0.237030	0.892000	0.282800
H101	H10	0.240200	0.980300	0.200000
O231	O23	0.335620	0.539800	0.137700
O241	O24	0.250040	0.647700	0.994500
C91	C9	0.344300	0.061200	0.445100
C101	C10	0.349100	0.894900	0.311300
H111	H11	0.382700	0.823700	0.370200
C111	C11	0.290000	0.786700	0.312600
H121	H12	0.287800	0.728400	0.453600
C121	C12	0.292700	0.646900	0.137800
Ce41	Ce4	0.854660	0.754240	0.949820
O251	O25	0.955940	0.862200	0.114400
O261	O26	0.962420	0.644500	0.851700
O271	O27	0.844490	0.703700	0.346500
O281	O28	0.840610	0.545200	0.646800
O291	O29	0.862350	0.444600	0.094500
H131	H13	0.893400	0.384700	0.055900
O301	O30	0.737030	0.392000	0.282800
H141	H14	0.740200	0.480300	0.200000
O311	O31	0.835620	0.039800	0.137700
O321	O32	0.750040	0.147700	0.994500
C131	C13	0.844300	0.561200	0.445100
C141	C14	0.849100	0.394900	0.311300
H151	H15	0.882700	0.323700	0.370200
C151	C15	0.790000	0.286700	0.312600
H161	H16	0.787800	0.228400	0.453600
C161	C16	0.792700	0.146900	0.137800
S11	S1	0.500000	0.254700	0.000000
S21	S2	0.000000	0.754700	0.000000
