data_YIVZIO_clean_PM
_symmetry_space_group_name_H-M	'P1'
_cell_length_a	14.168000
_cell_length_b	15.091000
_cell_length_c	22.752000
_cell_angle_alpha	85.333000
_cell_angle_beta	75.130000
_cell_angle_gamma	69.426000
_symmetry_Int_Tables_number 1

loop_
_symmetry_equiv_pos_as_xyz
'x,y,z'

loop_
_atom_site_label
_atom_site_type_symbol
_atom_site_fract_x
_atom_site_fract_y
_atom_site_fract_z
Pr11	Pr1	0.068710	0.167610	0.797860
Pr21	Pr2	0.805550	0.204360	0.729800
Pr31	Pr3	0.931290	0.832390	0.202140
Pr41	Pr4	0.458000	0.288710	0.695910
Pr51	Pr5	0.542000	0.711290	0.304090
Pr61	Pr6	0.194450	0.795640	0.270200
Si11	Si1	0.141890	0.327410	0.392370
Si21	Si2	0.668690	0.789830	0.893060
Si31	Si3	0.331310	0.210170	0.106940
Si41	Si4	0.858110	0.672590	0.607630
H11	H1	0.299300	0.132600	0.003300
H21	H2	0.398700	0.010200	0.360200
H31	H3	0.363300	0.315100	0.342800
H41	H4	0.119700	0.217600	0.296000
H51	H5	0.545600	0.586900	0.680900
H61	H6	0.453900	0.344900	0.913600
H71	H7	0.273700	0.909300	0.135900
H81	H8	0.006700	0.807500	0.421200
H91	H9	0.634000	0.677600	0.803700
H101	H10	0.921400	0.469600	0.863500
H111	H11	0.631200	0.993100	0.887000
H121	H12	0.185800	0.635400	0.373400
H131	H13	0.419300	0.326600	0.017600
H141	H14	0.918700	0.395700	0.451300
H151	H15	0.609300	0.861400	0.779800
H161	H16	0.366000	0.322400	0.196300
H171	H17	0.080200	0.414700	0.281600
H181	H18	0.069200	0.494600	0.745200
H191	H19	0.301000	0.474900	0.227500
H201	H20	0.726300	0.090700	0.864100
H211	H21	0.390700	0.138600	0.220200
H221	H22	0.993300	0.192500	0.578800
H231	H23	0.808100	0.621900	0.499700
H241	H24	0.601300	0.989800	0.639800
H251	H25	0.671300	0.847800	0.099900
H261	H26	0.008700	0.134900	0.168000
H271	H27	0.765900	0.480500	0.422500
H281	H28	0.150400	0.375500	0.101200
H291	H29	0.700700	0.867400	0.996700
H301	H30	0.919800	0.585300	0.718400
H311	H31	0.901400	0.472600	0.601800
H321	H32	0.081300	0.604300	0.548700
H331	H33	0.930800	0.505400	0.254800
H341	H34	0.546100	0.655100	0.086400
H351	H35	0.880300	0.782400	0.704000
H361	H36	0.991300	0.865100	0.832000
H371	H37	0.167500	0.336400	0.601200
H381	H38	0.106100	0.236400	0.149900
H391	H39	0.234100	0.519500	0.577500
H401	H40	0.812000	0.935900	0.735800
H411	H41	0.188000	0.064100	0.264200
H421	H42	0.098600	0.527400	0.398200
H431	H43	0.636700	0.684900	0.657200
H441	H44	0.324500	0.166200	0.396300
H451	H45	0.814200	0.364600	0.626600
H461	H46	0.444700	0.874600	0.953000
H471	H47	0.454400	0.413100	0.319100
H481	H48	0.368800	0.006900	0.113000
H491	H49	0.191900	0.378100	0.500300
H501	H50	0.580700	0.673400	0.982400
H511	H51	0.078600	0.530400	0.136500
H521	H52	0.328700	0.152200	0.900100
H531	H53	0.701600	0.026900	0.076900
H541	H54	0.555300	0.125400	0.047000
H551	H55	0.298400	0.973100	0.923100
H561	H56	0.465400	0.960100	0.751700
H571	H57	0.832500	0.663600	0.398800
H581	H58	0.699000	0.525100	0.772500
H591	H59	0.893900	0.763600	0.850100
H601	H60	0.849600	0.624500	0.898800
H611	H61	0.675500	0.833800	0.603700
H621	H62	0.030200	0.225000	0.474900
H631	H63	0.969800	0.775000	0.525100
H641	H64	0.534600	0.039900	0.248300
C11	C1	0.818000	0.479900	0.813600
C21	C2	0.358900	0.226000	0.021000
C31	C3	0.858100	0.377600	0.792600
C41	C4	0.731300	0.951600	0.181400
C51	C5	0.819200	0.604500	0.873100
C61	C6	0.751500	0.864100	0.870700
C71	C7	0.577100	0.698900	0.068500
C81	C8	0.928000	0.483400	0.294400
C91	C9	0.690300	0.635700	0.817000
C101	C10	0.825800	0.823900	0.689000
C111	C11	0.224200	0.404800	0.372300
C121	C12	0.080900	0.110400	0.157700
C131	C13	0.240900	0.974600	0.137600
C141	C14	0.704300	0.853900	0.630200
C151	C15	0.072000	0.516600	0.705600
C161	C16	0.174200	0.176100	0.311000
C171	C17	0.341600	0.051900	0.347600
C181	C18	0.402500	0.289600	0.993900
C191	C19	0.296700	0.033100	0.124900
C201	C20	0.919100	0.889600	0.842300
C211	C21	0.182000	0.520100	0.186400
C221	C22	0.397400	0.247700	0.896000
C231	C23	0.862100	0.685900	0.423800
C241	C24	0.014800	0.393900	0.369700
C251	C25	0.934500	0.765500	0.334600
C261	C26	0.730500	0.545100	0.797400
C271	C27	0.081100	0.260700	0.599700
C281	C28	0.017000	0.429000	0.310400
C291	C29	0.346800	0.920800	0.287100
C301	C30	0.783200	0.915200	0.709600
C311	C31	0.668700	0.824400	0.014800
C321	C32	0.326700	0.379500	0.349300
C331	C33	0.036200	0.227700	0.562800
C341	C34	0.167100	0.493800	0.662700
C351	C35	0.453200	0.116700	0.190900
C361	C36	0.216800	0.084800	0.290400
C371	C37	0.422900	0.301100	0.931500
C381	C38	0.921400	0.416200	0.411500
C391	C39	0.597500	0.710400	0.006100
C401	C40	0.918900	0.739300	0.400300
C411	C41	0.942300	0.750900	0.499700
C421	C42	0.759100	0.025400	0.862400
C431	C43	0.673300	0.620500	0.650700
C441	C44	0.267500	0.331700	0.142790
C451	C45	0.137900	0.314100	0.576200
C461	C46	0.658400	0.948100	0.652400
C471	C47	0.116400	0.303000	0.475600
C481	C48	0.544000	0.854500	0.869700
C491	C49	0.065500	0.234500	0.665400
C501	C50	0.703300	0.966900	0.875100
C511	C51	0.309700	0.364300	0.183000
C521	C52	0.832900	0.506200	0.337300
C531	C53	0.928000	0.050200	0.832100
C541	C54	0.638600	0.049900	0.105700
C551	C55	0.137000	0.489100	0.147900
C561	C56	0.414400	0.261500	0.828700
C571	C57	0.132400	0.014700	0.153200
C581	C58	0.331100	0.536300	0.342300
C591	C59	0.653200	0.079200	0.712900
C601	C60	0.632800	0.025100	0.165400
C611	C61	0.668900	0.463700	0.657700
C621	C62	0.863000	0.510900	0.852100
C631	C63	0.732800	0.570700	0.321600
C641	C64	0.267200	0.429300	0.678400
C651	C65	0.180800	0.395500	0.126900
C661	C66	0.367200	0.974900	0.834600
C671	C67	0.141900	0.622400	0.207400
C681	C68	0.845600	0.662100	0.485100
C691	C69	0.078600	0.583800	0.588500
C701	C70	0.170100	0.505500	0.381800
C711	C71	0.859800	0.828700	0.853900
C721	C72	0.612300	0.397800	0.677200
C731	C73	0.698100	0.976900	0.691900
C741	C74	0.778100	0.429100	0.632900
C751	C75	0.983000	0.571000	0.689600
C761	C76	0.461000	0.942000	0.792100
C771	C77	0.963800	0.772300	0.437200
C781	C78	0.617300	0.562300	0.665600
C791	C79	0.539000	0.058000	0.207900
C801	C80	0.382700	0.437700	0.334400
C811	C81	0.057700	0.249100	0.500300
C821	C82	0.732500	0.668300	0.857210
C831	C83	0.775800	0.595200	0.627700
C841	C84	0.208700	0.209300	0.352970
C851	C85	0.867600	0.985300	0.846800
C861	C86	0.791300	0.790700	0.647030
C871	C87	0.641100	0.774000	0.979000
C881	C88	0.883600	0.697000	0.524400
C891	C89	0.248500	0.135900	0.129300
C901	C90	0.301900	0.023100	0.308100
C911	C91	0.829700	0.469700	0.394600
C921	C92	0.361400	0.950100	0.894300
C931	C93	0.985200	0.606100	0.630300
C941	C94	0.456000	0.145500	0.130300
C951	C95	0.387700	0.602200	0.322800
C961	C96	0.221900	0.570900	0.367100
C971	C97	0.449300	0.890500	0.912300
C981	C98	0.349400	0.186700	0.923300
C991	C99	0.585600	0.738500	0.171300
C1001	C100	0.269500	0.454900	0.202600
C1011	C101	0.650600	0.813300	0.076700
C1021	C102	0.546800	0.883300	0.809100
C1031	C103	0.602600	0.752300	0.104000
C1041	C104	0.154400	0.337900	0.514900
C1051	C105	0.829900	0.494500	0.618200
C1061	C106	0.268700	0.048400	0.818600
C1071	C107	0.331300	0.175600	0.985200
C1081	C108	0.550700	0.109500	0.087700
C1091	C109	0.170300	0.530300	0.605400
C1101	C110	0.140200	0.171300	0.146100
C1111	C111	0.295700	0.146100	0.369800
C1121	C112	0.072000	0.949800	0.167900
N11	N1	0.084700	0.941200	0.361300
N21	N2	0.915300	0.058800	0.638700
O11	O1	0.528200	0.691900	0.197480
O21	O2	0.189800	0.078400	0.860740
O31	O3	0.342700	0.687000	0.312380
O41	O4	0.065800	0.956600	0.312650
O51	O5	0.515000	0.427100	0.683160
O61	O6	0.846400	0.137800	0.625120
O71	O7	0.015100	0.786800	0.309810
O81	O8	0.153600	0.862200	0.374880
O91	O9	0.730300	0.929900	0.234880
O101	O10	0.194400	0.648600	0.231340
O111	O11	0.569100	0.127600	0.698170
O121	O12	0.127800	0.237500	0.695160
O131	O13	0.625500	0.773200	0.202140
O141	O14	0.872200	0.762500	0.304840
O151	O15	0.805600	0.351400	0.768660
O161	O16	0.934200	0.043400	0.687350
O171	O17	0.300000	0.889900	0.258940
O181	O18	0.471800	0.308100	0.802520
O191	O19	0.017400	0.023800	0.845200
O201	O20	0.344800	0.399500	0.634910
O211	O21	0.053100	0.671400	0.199110
O221	O22	0.267300	0.400200	0.730410
O231	O23	0.955300	0.997200	0.586600
O241	O24	0.894600	0.132200	0.808220
O251	O25	0.105400	0.867800	0.191780
O261	O26	0.044700	0.002800	0.413400
O271	O27	0.984900	0.213200	0.690190
O281	O28	0.269700	0.070100	0.765120
O291	O29	0.946900	0.328600	0.800890
O301	O30	0.655200	0.600500	0.365090
O311	O31	0.430900	0.872400	0.301830
O321	O32	0.732700	0.599800	0.269590
O331	O33	0.485000	0.572900	0.316840
O341	O34	0.657300	0.313000	0.687620
O351	O35	0.700000	0.110100	0.741060
O361	O36	0.374500	0.226800	0.797860
O371	O37	0.982600	0.976200	0.154800
O381	O38	0.810200	0.921600	0.139260
