data_YIWMUM_clean_PM
_symmetry_space_group_name_H-M	'P1'
_cell_length_a	22.330000
_cell_length_b	13.297000
_cell_length_c	8.846000
_cell_angle_alpha	90.000000
_cell_angle_beta	90.000000
_cell_angle_gamma	90.000000
_symmetry_Int_Tables_number 1

loop_
_symmetry_equiv_pos_as_xyz
'x,y,z'

loop_
_atom_site_label
_atom_site_type_symbol
_atom_site_fract_x
_atom_site_fract_y
_atom_site_fract_z
N11	N1	0.077600	0.302300	0.061700
N21	N2	0.214500	0.378300	0.061400
C11	C1	0.048300	0.300000	0.957900
C21	C2	0.241900	0.393100	0.957600
N31	N3	0.422400	0.802300	0.938300
N41	N4	0.285500	0.878300	0.938600
C31	C3	0.451700	0.800000	0.042100
C41	C4	0.258100	0.893100	0.042400
N51	N5	0.922400	0.697700	0.561700
N61	N6	0.785500	0.621700	0.561400
C51	C5	0.951700	0.700000	0.457900
C61	C6	0.758100	0.606900	0.457600
N71	N7	0.577600	0.197700	0.438300
N81	N8	0.714500	0.121700	0.438600
C71	C7	0.548300	0.200000	0.542100
C81	C8	0.741900	0.106900	0.542400
N91	N9	0.922400	0.697700	0.938300
N101	N10	0.785500	0.621700	0.938600
C91	C9	0.951700	0.700000	0.042100
C101	C10	0.758100	0.606900	0.042400
N111	N11	0.577600	0.197700	0.061700
N121	N12	0.714500	0.121700	0.061400
C111	C11	0.548300	0.200000	0.957900
C121	C12	0.741900	0.106900	0.957600
N131	N13	0.077600	0.302300	0.438300
N141	N14	0.214500	0.378300	0.438600
C131	C13	0.048300	0.300000	0.542100
C141	C14	0.241900	0.393100	0.542400
N151	N15	0.422400	0.802300	0.561700
N161	N16	0.285500	0.878300	0.561400
C151	C15	0.451700	0.800000	0.457900
C161	C16	0.258100	0.893100	0.457600
Cd11	Cd1	0.146050	0.340570	0.250000
N171	N17	0.099400	0.499200	0.250000
N181	N18	0.178900	0.175700	0.250000
C171	C17	0.066400	0.560200	0.250000
C181	C18	0.187700	0.093400	0.250000
Cd21	Cd2	0.353950	0.840570	0.750000
N191	N19	0.400600	0.999200	0.750000
N201	N20	0.321100	0.675700	0.750000
C191	C19	0.433600	0.060200	0.750000
C201	C20	0.312300	0.593400	0.750000
Cd31	Cd3	0.853950	0.659430	0.750000
N211	N21	0.900600	0.500800	0.750000
N221	N22	0.821100	0.824300	0.750000
C211	C21	0.933600	0.439800	0.750000
C221	C22	0.812300	0.906600	0.750000
Cd41	Cd4	0.646050	0.159430	0.250000
N231	N23	0.599400	0.000800	0.250000
N241	N24	0.678900	0.324300	0.250000
C231	C23	0.566400	0.939800	0.250000
C241	C24	0.687700	0.406600	0.250000
Cd51	Cd5	0.293180	0.429180	0.750000
Cd61	Cd6	0.995630	0.306610	0.750000
C251	C25	0.924100	0.192500	0.750000
C261	C26	0.379600	0.349400	0.750000
Cd71	Cd7	0.206820	0.929180	0.250000
Cd81	Cd8	0.504370	0.806610	0.250000
C271	C27	0.575900	0.692500	0.250000
C281	C28	0.120400	0.849400	0.250000
Cd91	Cd9	0.706820	0.570820	0.250000
Cd101	Cd10	0.004370	0.693390	0.250000
C291	C29	0.075900	0.807500	0.250000
C301	C30	0.620400	0.650600	0.250000
Cd111	Cd11	0.793180	0.070820	0.750000
Cd121	Cd12	0.495630	0.193390	0.750000
C311	C31	0.424100	0.307500	0.750000
C321	C32	0.879600	0.150600	0.750000
