data_YIWMOG_clean_PM
_symmetry_space_group_name_H-M	'P1'
_cell_length_a	21.628000
_cell_length_b	13.998000
_cell_length_c	8.945000
_cell_angle_alpha	90.000000
_cell_angle_beta	90.000000
_cell_angle_gamma	90.000000
_symmetry_Int_Tables_number 1

loop_
_symmetry_equiv_pos_as_xyz
'x,y,z'

loop_
_atom_site_label
_atom_site_type_symbol
_atom_site_fract_x
_atom_site_fract_y
_atom_site_fract_z
N11	N1	0.063200	0.284600	0.053000
N21	N2	0.201800	0.358100	0.062800
C11	C1	0.032600	0.294600	0.952600
C21	C2	0.225200	0.387100	0.956800
N31	N3	0.436800	0.784600	0.947000
N41	N4	0.298200	0.858100	0.937200
C31	C3	0.467400	0.794600	0.047400
C41	C4	0.274800	0.887100	0.043200
N51	N5	0.936800	0.715400	0.553000
N61	N6	0.798200	0.641900	0.562800
C51	C5	0.967400	0.705400	0.452600
C61	C6	0.774800	0.612900	0.456800
N71	N7	0.563200	0.215400	0.447000
N81	N8	0.701800	0.141900	0.437200
C71	C7	0.532600	0.205400	0.547400
C81	C8	0.725200	0.112900	0.543200
N91	N9	0.936800	0.715400	0.947000
N101	N10	0.798200	0.641900	0.937200
C91	C9	0.967400	0.705400	0.047400
C101	C10	0.774800	0.612900	0.043200
N111	N11	0.563200	0.215400	0.053000
N121	N12	0.701800	0.141900	0.062800
C111	C11	0.532600	0.205400	0.952600
C121	C12	0.725200	0.112900	0.956800
N131	N13	0.063200	0.284600	0.447000
N141	N14	0.201800	0.358100	0.437200
C131	C13	0.032600	0.294600	0.547400
C141	C14	0.225200	0.387100	0.543200
N151	N15	0.436800	0.784600	0.553000
N161	N16	0.298200	0.858100	0.562800
C151	C15	0.467400	0.794600	0.452600
C161	C16	0.274800	0.887100	0.456800
Cd11	Cd1	0.130000	0.312640	0.250000
N171	N17	0.094900	0.469100	0.250000
N181	N18	0.167800	0.154200	0.250000
C171	C17	0.069500	0.538500	0.250000
C181	C18	0.187700	0.078500	0.250000
Cd21	Cd2	0.370000	0.812640	0.750000
N191	N19	0.405100	0.969100	0.750000
N201	N20	0.332200	0.654200	0.750000
C191	C19	0.430500	0.038500	0.750000
C201	C20	0.312300	0.578500	0.750000
Cd31	Cd3	0.870000	0.687360	0.750000
N211	N21	0.905100	0.530900	0.750000
N221	N22	0.832200	0.845800	0.750000
C211	C21	0.930500	0.461500	0.750000
C221	C22	0.812300	0.921500	0.750000
Cd41	Cd4	0.630000	0.187360	0.250000
N231	N23	0.594900	0.030900	0.250000
N241	N24	0.667800	0.345800	0.250000
C231	C23	0.569500	0.961500	0.250000
C241	C24	0.687700	0.421500	0.250000
Cd51	Cd5	0.271390	0.433900	0.750000
Cd61	Cd6	0.975100	0.319890	0.750000
C251	C25	0.894300	0.219100	0.750000
C261	C26	0.353100	0.332100	0.750000
Cd71	Cd7	0.228610	0.933900	0.250000
Cd81	Cd8	0.524900	0.819890	0.250000
C271	C27	0.605700	0.719100	0.250000
C281	C28	0.146900	0.832100	0.250000
Cd91	Cd9	0.728610	0.566100	0.250000
Cd101	Cd10	0.024900	0.680110	0.250000
C291	C29	0.105700	0.780900	0.250000
C301	C30	0.646900	0.667900	0.250000
Cd111	Cd11	0.771390	0.066100	0.750000
Cd121	Cd12	0.475100	0.180110	0.750000
C311	C31	0.394300	0.280900	0.750000
C321	C32	0.853100	0.167900	0.750000
