data_YIWNAT_clean_PM
_symmetry_space_group_name_H-M	'P1'
_cell_length_a	22.256000
_cell_length_b	13.489000
_cell_length_c	8.868000
_cell_angle_alpha	90.000000
_cell_angle_beta	90.000000
_cell_angle_gamma	90.000000
_symmetry_Int_Tables_number 1

loop_
_symmetry_equiv_pos_as_xyz
'x,y,z'

loop_
_atom_site_label
_atom_site_type_symbol
_atom_site_fract_x
_atom_site_fract_y
_atom_site_fract_z
N11	N1	0.072200	0.297100	0.063000
N21	N2	0.209400	0.379600	0.061000
C11	C1	0.044300	0.298000	0.958000
C21	C2	0.237100	0.399200	0.957000
N31	N3	0.427800	0.797100	0.937000
N41	N4	0.290600	0.879600	0.939000
C31	C3	0.455700	0.798000	0.042000
C41	C4	0.262900	0.899200	0.043000
N51	N5	0.927800	0.702900	0.563000
N61	N6	0.790600	0.620400	0.561000
C51	C5	0.955700	0.702000	0.458000
C61	C6	0.762900	0.600800	0.457000
N71	N7	0.572200	0.202900	0.437000
N81	N8	0.709400	0.120400	0.439000
C71	C7	0.544300	0.202000	0.542000
C81	C8	0.737100	0.100800	0.543000
N91	N9	0.927800	0.702900	0.937000
N101	N10	0.790600	0.620400	0.939000
C91	C9	0.955700	0.702000	0.042000
C101	C10	0.762900	0.600800	0.043000
N111	N11	0.572200	0.202900	0.063000
N121	N12	0.709400	0.120400	0.061000
C111	C11	0.544300	0.202000	0.958000
C121	C12	0.737100	0.100800	0.957000
N131	N13	0.072200	0.297100	0.437000
N141	N14	0.209400	0.379600	0.439000
C131	C13	0.044300	0.298000	0.542000
C141	C14	0.237100	0.399200	0.543000
N151	N15	0.427800	0.797100	0.563000
N161	N16	0.290600	0.879600	0.561000
C151	C15	0.455700	0.798000	0.458000
C161	C16	0.262900	0.899200	0.457000
Cd11	Cd1	0.142250	0.336900	0.250000
N171	N17	0.097900	0.494000	0.250000
N181	N18	0.177400	0.175000	0.250000
C171	C17	0.067000	0.556000	0.250000
C181	C18	0.189700	0.095000	0.250000
Cd21	Cd2	0.357750	0.836900	0.750000
N191	N19	0.402100	0.994000	0.750000
N201	N20	0.322600	0.675000	0.750000
C191	C19	0.433000	0.056000	0.750000
C201	C20	0.310300	0.595000	0.750000
Cd31	Cd3	0.857750	0.663100	0.750000
N211	N21	0.902100	0.506000	0.750000
N221	N22	0.822600	0.825000	0.750000
C211	C21	0.933000	0.444000	0.750000
C221	C22	0.810300	0.905000	0.750000
Cd41	Cd4	0.642250	0.163100	0.250000
N231	N23	0.597900	0.006000	0.250000
N241	N24	0.677400	0.325000	0.250000
C231	C23	0.567000	0.944000	0.250000
C241	C24	0.689700	0.405000	0.250000
Cd51	Cd5	0.288190	0.433810	0.750000
Cd61	Cd6	0.991650	0.306300	0.750000
C251	C25	0.912900	0.196000	0.750000
C261	C26	0.370200	0.348000	0.750000
Cd71	Cd7	0.211810	0.933810	0.250000
Cd81	Cd8	0.508350	0.806300	0.250000
C271	C27	0.587100	0.696000	0.250000
C281	C28	0.129800	0.848000	0.250000
Cd91	Cd9	0.711810	0.566190	0.250000
Cd101	Cd10	0.008350	0.693700	0.250000
C291	C29	0.087100	0.804000	0.250000
C301	C30	0.629800	0.652000	0.250000
Cd111	Cd11	0.788190	0.066190	0.750000
Cd121	Cd12	0.491650	0.193700	0.750000
C311	C31	0.412900	0.304000	0.750000
C321	C32	0.870200	0.152000	0.750000
