data_YIWNOH_clean_PM
_symmetry_space_group_name_H-M	'P1'
_cell_length_a	8.775000
_cell_length_b	8.775000
_cell_length_c	20.546000
_cell_angle_alpha	90.000000
_cell_angle_beta	90.000000
_cell_angle_gamma	120.000000
_symmetry_Int_Tables_number 1

loop_
_symmetry_equiv_pos_as_xyz
'x,y,z'

loop_
_atom_site_label
_atom_site_type_symbol
_atom_site_fract_x
_atom_site_fract_y
_atom_site_fract_z
Cd11	Cd1	0.000000	0.000000	0.000000
Cd21	Cd2	0.000000	0.000000	0.500000
Cd31	Cd3	0.333330	0.666670	0.114760
C11	C1	0.333330	0.666670	0.222000
Cd41	Cd4	0.666670	0.333330	0.614760
C21	C2	0.666670	0.333330	0.722000
Cd51	Cd5	0.666670	0.333330	0.885240
C31	C3	0.666670	0.333330	0.778000
Cd61	Cd6	0.333330	0.666670	0.385240
C41	C4	0.333330	0.666670	0.278000
N11	N1	0.127700	0.255400	0.060600
C51	C5	0.194400	0.388800	0.081100
N21	N2	0.744600	0.872300	0.060600
C61	C6	0.611200	0.805600	0.081100
N31	N3	0.127700	0.872300	0.060600
C71	C7	0.194400	0.805600	0.081100
N41	N4	0.872300	0.744600	0.560600
C81	C8	0.805600	0.611200	0.581100
N51	N5	0.255400	0.127700	0.560600
C91	C9	0.388800	0.194400	0.581100
N61	N6	0.872300	0.127700	0.560600
C101	C10	0.805600	0.194400	0.581100
N71	N7	0.255400	0.127700	0.939400
C111	C11	0.388800	0.194400	0.918900
N81	N8	0.872300	0.744600	0.939400
C121	C12	0.805600	0.611200	0.918900
N91	N9	0.872300	0.127700	0.939400
C131	C13	0.805600	0.194400	0.918900
N101	N10	0.744600	0.872300	0.439400
C141	C14	0.611200	0.805600	0.418900
N111	N11	0.127700	0.255400	0.439400
C151	C15	0.194400	0.388800	0.418900
N121	N12	0.127700	0.872300	0.439400
C161	C16	0.194400	0.805600	0.418900
