data_YIWPEZ_SL_part_PM
_symmetry_space_group_name_H-M	'P1'
_cell_length_a	8.775000
_cell_length_b	8.775000
_cell_length_c	20.546000
_cell_angle_alpha	90.000000
_cell_angle_beta	90.000000
_cell_angle_gamma	120.000000
_symmetry_Int_Tables_number 1

loop_
_symmetry_equiv_pos_as_xyz
'x,y,z'

loop_
_atom_site_label
_atom_site_type_symbol
_atom_site_fract_x
_atom_site_fract_y
_atom_site_fract_z
Cd11	Cd1	0.000000	0.000000	0.000000
Cd21	Cd2	0.000000	0.000000	0.500000
Cd31	Cd3	0.666670	0.333340	0.886400
Cd41	Cd4	0.333330	0.666660	0.386400
Cd51	Cd5	0.333330	0.666660	0.113600
Cd61	Cd6	0.666670	0.333340	0.613600
C11	C1	0.666670	0.333340	0.775000
C21	C2	0.333330	0.666660	0.275000
C31	C3	0.333330	0.666660	0.225000
C41	C4	0.666670	0.333340	0.725000
C51	C5	0.805000	0.195000	0.918600
C61	C6	0.390000	0.195000	0.918600
C71	C7	0.805000	0.610000	0.918600
C81	C8	0.195000	0.805000	0.418600
C91	C9	0.610000	0.805000	0.418600
C101	C10	0.195000	0.390000	0.418600
C111	C11	0.610000	0.805000	0.081400
C121	C12	0.195000	0.805000	0.081400
C131	C13	0.195000	0.390000	0.081400
C141	C14	0.390000	0.195000	0.581400
C151	C15	0.805000	0.195000	0.581400
C161	C16	0.805000	0.610000	0.581400
N11	N1	0.877400	0.122600	0.934900
N21	N2	0.245200	0.122600	0.934900
N31	N3	0.877400	0.754800	0.934900
N41	N4	0.122600	0.877400	0.434900
N51	N5	0.754800	0.877400	0.434900
N61	N6	0.122600	0.245200	0.434900
N71	N7	0.754800	0.877400	0.065100
N81	N8	0.122600	0.877400	0.065100
N91	N9	0.122600	0.245200	0.065100
N101	N10	0.245200	0.122600	0.565100
N111	N11	0.877400	0.122600	0.565100
N121	N12	0.877400	0.754800	0.565100
