data_YIWPAV_clean_PM
_symmetry_space_group_name_H-M	'P1'
_cell_length_a	8.814000
_cell_length_b	8.814000
_cell_length_c	20.567000
_cell_angle_alpha	90.000000
_cell_angle_beta	90.000000
_cell_angle_gamma	120.000000
_symmetry_Int_Tables_number 1

loop_
_symmetry_equiv_pos_as_xyz
'x,y,z'

loop_
_atom_site_label
_atom_site_type_symbol
_atom_site_fract_x
_atom_site_fract_y
_atom_site_fract_z
Cd11	Cd1	0.000000	0.000000	0.000000
Cd21	Cd2	0.000000	0.000000	0.500000
Cd31	Cd3	0.333330	0.666670	0.113700
C11	C1	0.333330	0.666670	0.222000
Cd41	Cd4	0.666670	0.333330	0.613700
C21	C2	0.666670	0.333330	0.722000
Cd51	Cd5	0.666670	0.333330	0.886300
C31	C3	0.666670	0.333330	0.778000
Cd61	Cd6	0.333330	0.666670	0.386300
C41	C4	0.333330	0.666670	0.278000
N11	N1	0.126000	0.252000	0.061500
C51	C5	0.194000	0.388000	0.079800
N21	N2	0.748000	0.874000	0.061500
C61	C6	0.612000	0.806000	0.079800
N31	N3	0.126000	0.874000	0.061500
C71	C7	0.194000	0.806000	0.079800
N41	N4	0.874000	0.748000	0.561500
C81	C8	0.806000	0.612000	0.579800
N51	N5	0.252000	0.126000	0.561500
C91	C9	0.388000	0.194000	0.579800
N61	N6	0.874000	0.126000	0.561500
C101	C10	0.806000	0.194000	0.579800
N71	N7	0.252000	0.126000	0.938500
C111	C11	0.388000	0.194000	0.920200
N81	N8	0.874000	0.748000	0.938500
C121	C12	0.806000	0.612000	0.920200
N91	N9	0.874000	0.126000	0.938500
C131	C13	0.806000	0.194000	0.920200
N101	N10	0.748000	0.874000	0.438500
C141	C14	0.612000	0.806000	0.420200
N111	N11	0.126000	0.252000	0.438500
C151	C15	0.194000	0.388000	0.420200
N121	N12	0.126000	0.874000	0.438500
C161	C16	0.194000	0.806000	0.420200
