data_YIXFIW_clean_PM
_symmetry_space_group_name_H-M	'P1'
_cell_length_a	13.019600
_cell_length_b	13.148800
_cell_length_c	14.044400
_cell_angle_alpha	90.000000
_cell_angle_beta	103.955000
_cell_angle_gamma	90.000000
_symmetry_Int_Tables_number 1

loop_
_symmetry_equiv_pos_as_xyz
'x,y,z'

loop_
_atom_site_label
_atom_site_type_symbol
_atom_site_fract_x
_atom_site_fract_y
_atom_site_fract_z
Sm11	Sm1	0.408870	0.446750	0.088170
O11	O1	0.849500	0.112700	0.423300
O21	O2	0.472700	0.387700	0.256400
O31	O3	0.358500	0.512000	0.239900
O41	O4	0.570000	0.414600	0.040400
O51	O5	0.441200	0.251200	0.086200
C11	C1	0.882600	0.114200	0.346400
C21	C2	0.465200	0.479500	0.400300
C31	C3	0.392500	0.177000	0.047800
C41	C4	0.713800	0.307300	0.115700
C51	C5	0.793200	0.243300	0.099700
H11	H1	0.811000	0.244200	0.039400
C61	C6	0.429100	0.457900	0.291900
O61	O6	0.290100	0.170100	0.023500
H21	H2	0.264200	0.223000	0.038000
C71	C7	0.845500	0.178300	0.172900
H31	H3	0.897000	0.134200	0.161200
C81	C8	0.545000	0.421700	0.458800
H41	H4	0.575300	0.368500	0.431500
C91	C9	0.420200	0.556900	0.442100
H51	H5	0.365800	0.595200	0.403500
O71	O7	0.962000	0.069500	0.332300
O81	O8	0.704100	0.406400	0.973100
C101	C10	0.742500	0.242300	0.279700
H61	H6	0.725400	0.241900	0.340300
C111	C11	0.821100	0.178900	0.264100
C121	C12	0.659200	0.379300	0.038000
C131	C13	0.688200	0.307100	0.205800
H71	H7	0.635300	0.349700	0.217000
C141	C14	0.447900	0.084000	0.023600
C151	C15	0.556200	0.074400	0.059700
H81	H8	0.593800	0.125000	0.099700
C161	C16	0.391600	0.009600	0.963200
H91	H9	0.318900	0.016300	0.938400
Cl11	Cl1	0.196730	0.361390	0.076670
Sm21	Sm2	0.091130	0.946750	0.411830
O91	O9	0.650500	0.612700	0.076700
O101	O10	0.027300	0.887700	0.243600
O111	O11	0.141500	0.012000	0.260100
O121	O12	0.930000	0.914600	0.459600
O131	O13	0.058800	0.751200	0.413800
C171	C17	0.617400	0.614200	0.153600
C181	C18	0.034800	0.979500	0.099700
C191	C19	0.107500	0.677000	0.452200
C201	C20	0.786200	0.807300	0.384300
C211	C21	0.706800	0.743300	0.400300
H101	H10	0.689000	0.744200	0.460600
C221	C22	0.070900	0.957900	0.208100
O141	O14	0.209900	0.670100	0.476500
H111	H11	0.235800	0.723000	0.462000
C231	C23	0.654500	0.678300	0.327100
H121	H12	0.603000	0.634200	0.338800
C241	C24	0.955000	0.921700	0.041200
H131	H13	0.924700	0.868500	0.068500
C251	C25	0.079800	0.056900	0.057900
H141	H14	0.134200	0.095200	0.096500
O151	O15	0.538000	0.569500	0.167700
O161	O16	0.795900	0.906400	0.526900
C261	C26	0.757500	0.742300	0.220300
H151	H15	0.774600	0.741900	0.159700
C271	C27	0.678900	0.678900	0.235900
C281	C28	0.840800	0.879300	0.462000
C291	C29	0.811800	0.807100	0.294200
H161	H16	0.864700	0.849700	0.283000
C301	C30	0.052100	0.584000	0.476400
C311	C31	0.943800	0.574400	0.440300
H171	H17	0.906200	0.625000	0.400300
C321	C32	0.108400	0.509600	0.536800
H181	H18	0.181100	0.516300	0.561600
Cl21	Cl2	0.303270	0.861390	0.423330
Sm31	Sm3	0.591130	0.553250	0.911830
O171	O17	0.150500	0.887300	0.576700
O181	O18	0.527300	0.612300	0.743600
O191	O19	0.641500	0.488000	0.760100
O201	O20	0.430000	0.585400	0.959600
O211	O21	0.558800	0.748800	0.913800
C331	C33	0.117400	0.885800	0.653600
C341	C34	0.534800	0.520500	0.599700
C351	C35	0.607500	0.823000	0.952200
C361	C36	0.286200	0.692700	0.884300
C371	C37	0.206800	0.756700	0.900300
H191	H19	0.189000	0.755800	0.960600
C381	C38	0.570900	0.542100	0.708100
O221	O22	0.709900	0.829900	0.976500
H201	H20	0.735800	0.777000	0.962000
C391	C39	0.154500	0.821700	0.827100
H211	H21	0.103000	0.865800	0.838800
C401	C40	0.455000	0.578300	0.541200
H221	H22	0.424700	0.631500	0.568500
C411	C41	0.579800	0.443100	0.557900
H231	H23	0.634200	0.404800	0.596500
O231	O23	0.038000	0.930500	0.667700
O241	O24	0.295900	0.593600	0.026900
C421	C42	0.257500	0.757700	0.720300
H241	H24	0.274600	0.758100	0.659700
C431	C43	0.178900	0.821100	0.735900
C441	C44	0.340800	0.620700	0.962000
C451	C45	0.311800	0.692900	0.794200
H251	H25	0.364700	0.650300	0.783000
C461	C46	0.552100	0.916000	0.976400
C471	C47	0.443800	0.925600	0.940300
H261	H26	0.406200	0.875000	0.900300
C481	C48	0.608400	0.990400	0.036800
H271	H27	0.681100	0.983700	0.061600
Cl31	Cl3	0.803270	0.638610	0.923330
Sm41	Sm4	0.908870	0.053250	0.588170
O251	O25	0.349500	0.387300	0.923300
O261	O26	0.972700	0.112300	0.756400
O271	O27	0.858500	0.988000	0.739900
O281	O28	0.070000	0.085400	0.540400
O291	O29	0.941200	0.248800	0.586200
C491	C49	0.382600	0.385800	0.846400
C501	C50	0.965200	0.020500	0.900300
C511	C51	0.892500	0.323000	0.547800
C521	C52	0.213800	0.192700	0.615700
C531	C53	0.293200	0.256700	0.599700
H281	H28	0.311000	0.255800	0.539400
C541	C54	0.929100	0.042100	0.791900
O301	O30	0.790100	0.329900	0.523500
H291	H29	0.764200	0.277000	0.538000
C551	C55	0.345500	0.321700	0.672900
H301	H30	0.397000	0.365800	0.661200
C561	C56	0.045000	0.078300	0.958800
H311	H31	0.075300	0.131500	0.931500
C571	C57	0.920200	0.943100	0.942100
H321	H32	0.865800	0.904800	0.903500
O311	O31	0.462000	0.430500	0.832300
O321	O32	0.204100	0.093600	0.473100
C581	C58	0.242500	0.257700	0.779700
H331	H33	0.225400	0.258100	0.840300
C591	C59	0.321100	0.321100	0.764100
C601	C60	0.159200	0.120700	0.538000
C611	C61	0.188200	0.192900	0.705800
H341	H34	0.135300	0.150300	0.717000
C621	C62	0.947900	0.416000	0.523600
C631	C63	0.056200	0.425600	0.559700
H351	H35	0.093800	0.375000	0.599700
C641	C64	0.891600	0.490400	0.463200
H361	H36	0.818900	0.483700	0.438400
Cl41	Cl4	0.696730	0.138610	0.576670
