data_YIYHAQ_clean_PM
_symmetry_space_group_name_H-M	'P1'
_cell_length_a	13.224900
_cell_length_b	13.298900
_cell_length_c	20.348800
_cell_angle_alpha	81.266000
_cell_angle_beta	81.426000
_cell_angle_gamma	81.246000
_symmetry_Int_Tables_number 1

loop_
_symmetry_equiv_pos_as_xyz
'x,y,z'

loop_
_atom_site_label
_atom_site_type_symbol
_atom_site_fract_x
_atom_site_fract_y
_atom_site_fract_z
Zn11	Zn1	0.843080	0.735290	0.295240
N11	N1	0.734730	0.819380	0.353140
C11	C1	0.732900	0.920100	0.354840
H11	H1	0.787700	0.953600	0.329800
C21	C2	0.653800	0.977400	0.391700
H21	H2	0.654700	0.048800	0.391500
C31	C3	0.574100	0.929400	0.428710
C41	C4	0.577300	0.824900	0.428140
H31	H3	0.524300	0.789300	0.453700
C51	C5	0.658300	0.772600	0.389990
H41	H4	0.659600	0.701000	0.390000
C61	C6	0.486300	0.991600	0.467500
H51	H5	0.468600	0.058800	0.440500
H61	H6	0.424700	0.955200	0.475600
N21	N2	0.891410	0.828710	0.209650
C71	C7	0.835800	0.914900	0.183920
H71	H7	0.768400	0.934000	0.205700
C81	C8	0.872300	0.977600	0.126890
H81	H8	0.830700	0.038300	0.110600
C91	C9	0.970100	0.950500	0.094110
C101	C10	0.027700	0.861000	0.120570
H91	H9	0.095000	0.839900	0.099400
C111	C11	0.986800	0.802900	0.177590
H101	H10	0.027400	0.742300	0.195000
C121	C12	0.013100	0.016400	0.032110
H111	H11	0.089000	0.010700	0.030300
H121	H12	0.984300	0.089100	0.034600
N31	N3	0.756400	0.643100	0.263690
C131	C13	0.743300	0.549600	0.297870
H131	H13	0.778700	0.525500	0.335800
C141	C14	0.680200	0.488000	0.279310
H141	H14	0.674000	0.422000	0.303800
C151	C15	0.625900	0.521800	0.225090
C161	C16	0.639900	0.618900	0.190160
H151	H15	0.604400	0.645400	0.152700
C171	C17	0.705100	0.675500	0.210320
H161	H16	0.714500	0.740700	0.185500
C181	C18	0.555900	0.456100	0.204800
H171	H17	0.485900	0.495000	0.204000
H181	H18	0.550800	0.394500	0.238600
Zn21	Zn2	0.294040	0.175300	0.033350
N41	N4	0.401120	0.240100	0.065890
C191	C19	0.402700	0.239200	0.131730
H191	H19	0.358600	0.199000	0.162500
C201	C20	0.465200	0.293900	0.156610
H201	H20	0.465500	0.289000	0.203600
C211	C21	0.528200	0.356600	0.112850
C221	C22	0.528900	0.353800	0.044700
H211	H21	0.573000	0.392500	0.012800
C231	C23	0.466700	0.295900	0.023350
H221	H22	0.469500	0.294700	0.976500
C241	C24	0.594700	0.422600	0.136050
H231	H23	0.600100	0.484700	0.102700
H241	H24	0.664900	0.384400	0.137200
N51	N5	0.211700	0.109500	0.118760
C251	C25	0.247400	0.015500	0.147290
H251	H25	0.312200	0.983200	0.128600
C261	C26	0.194600	0.963900	0.202400
H261	H26	0.223800	0.898300	0.221700
C271	C27	0.099700	0.007400	0.229450
C281	C28	0.062100	0.104900	0.200830
H271	H27	0.997400	0.138200	0.218800
C291	C29	0.119600	0.153200	0.145920
H281	H28	0.092900	0.219800	0.126700
C301	C30	0.039100	0.952800	0.289000
H291	H29	0.056500	0.877700	0.289000
H301	H30	0.964500	0.971100	0.285700
N61	N6	0.862800	0.859520	0.525160
C311	C31	0.944000	0.800200	0.496630
H311	H31	0.956900	0.730200	0.515200
C321	C32	0.009500	0.836400	0.441510
H321	H32	0.066000	0.791900	0.422800
C331	C33	0.991700	0.938700	0.413830
C341	C34	0.906700	0.999000	0.442040
H331	H33	0.890600	0.068500	0.423300
C351	C35	0.845100	0.958100	0.497410
H341	H34	0.788000	0.001200	0.516700
C361	C36	0.062600	0.981500	0.354380
H351	H35	0.135100	0.954700	0.360600
H361	H36	0.054600	0.057200	0.351800
N71	N7	0.194490	0.295690	0.995810
C371	C37	0.213700	0.393600	0.989050
H371	H37	0.270600	0.407700	0.008000
C381	C38	0.154300	0.474300	0.955830
H381	H38	0.171200	0.542100	0.951500
C391	C39	0.069600	0.455500	0.928730
C401	C40	0.047000	0.355700	0.938540
H391	H39	0.987900	0.340200	0.922700
C411	C41	0.110800	0.278400	0.971530
H401	H40	0.094600	0.210200	0.977200
C421	C42	0.007400	0.538200	0.886970
H411	H41	0.014600	0.606400	0.898200
H421	H42	0.933500	0.528900	0.896400
Zn31	Zn3	0.767530	0.811680	0.609810
N81	N8	0.861300	0.725160	0.673450
C431	C43	0.964100	0.724200	0.666530
H431	H43	0.995800	0.766300	0.629600
C441	C44	0.025700	0.664500	0.710970
H441	H44	0.098000	0.666500	0.704600
C451	C45	0.981300	0.601700	0.764900
C461	C46	0.875100	0.602900	0.771290
H451	H45	0.841500	0.560800	0.807300
C471	C47	0.818100	0.664800	0.725520
H461	H46	0.745500	0.664700	0.731100
C481	C48	0.046000	0.532200	0.812740
H471	H47	0.117300	0.549600	0.803200
H481	H48	0.048500	0.460500	0.804100
N91	N9	0.683450	0.712000	0.584380
C491	C49	0.727600	0.643100	0.542510
H491	H49	0.797300	0.645600	0.523300
C501	C50	0.676200	0.569700	0.526670
H501	H50	0.710800	0.522200	0.497700
C511	C51	0.573200	0.564700	0.553050
C521	C52	0.527200	0.637900	0.594650
H511	H51	0.456600	0.639000	0.612600
C531	C53	0.583300	0.708300	0.609830
H521	H52	0.550600	0.756100	0.639200
C541	C54	0.514500	0.485900	0.535990
H531	H53	0.450900	0.481500	0.568200
H541	H54	0.557100	0.417900	0.539900
Zn41	Zn4	0.156920	0.264710	0.704760
N101	N10	0.265270	0.180620	0.646860
C551	C55	0.267100	0.079900	0.645160
H551	H55	0.212300	0.046400	0.670200
C561	C56	0.346200	0.022600	0.608300
H561	H56	0.345300	0.951200	0.608500
C571	C57	0.425900	0.070600	0.571290
C581	C58	0.422700	0.175100	0.571860
H571	H57	0.475700	0.210700	0.546300
C591	C59	0.341700	0.227400	0.610010
H581	H58	0.340400	0.299000	0.610000
C601	C60	0.513700	0.008400	0.532500
H591	H59	0.531400	0.941200	0.559500
H601	H60	0.575300	0.044800	0.524400
N111	N11	0.108590	0.171290	0.790350
C611	C61	0.164200	0.085100	0.816080
H611	H61	0.231600	0.066000	0.794300
C621	C62	0.127700	0.022400	0.873110
H621	H62	0.169300	0.961700	0.889400
C631	C63	0.029900	0.049500	0.905890
C641	C64	0.972300	0.139000	0.879430
H631	H63	0.905000	0.160100	0.900600
C651	C65	0.013200	0.197100	0.822410
H641	H64	0.972600	0.257700	0.805000
C661	C66	0.986900	0.983600	0.967890
H651	H65	0.911000	0.989300	0.969700
H661	H66	0.015700	0.910900	0.965400
N121	N12	0.243600	0.356900	0.736310
C671	C67	0.256700	0.450400	0.702130
H671	H67	0.221300	0.474500	0.664200
C681	C68	0.319800	0.512000	0.720690
H681	H68	0.326000	0.578000	0.696200
C691	C69	0.374100	0.478200	0.774910
C701	C70	0.360100	0.381100	0.809840
H691	H69	0.395600	0.354600	0.847300
C711	C71	0.294900	0.324500	0.789680
H701	H70	0.285500	0.259300	0.814500
C721	C72	0.444100	0.543900	0.795200
H711	H71	0.514100	0.505000	0.796000
H721	H72	0.449200	0.605500	0.761400
Zn51	Zn5	0.705960	0.824700	0.966640
N131	N13	0.598880	0.759900	0.934110
C731	C73	0.597300	0.760800	0.868270
H731	H73	0.641400	0.801000	0.837500
C741	C74	0.534800	0.706100	0.843390
H741	H74	0.534500	0.711000	0.796400
C751	C75	0.471800	0.643400	0.887150
C761	C76	0.471100	0.646200	0.955300
H751	H75	0.427000	0.607500	0.987200
C771	C77	0.533300	0.704100	0.976650
H761	H76	0.530500	0.705300	0.023500
C781	C78	0.405300	0.577400	0.863950
H771	H77	0.399900	0.515300	0.897300
H781	H78	0.335100	0.615600	0.862800
N141	N14	0.788300	0.890500	0.881240
C791	C79	0.752600	0.984500	0.852710
H791	H79	0.687800	0.016800	0.871400
C801	C80	0.805400	0.036100	0.797600
H801	H80	0.776200	0.101700	0.778300
C811	C81	0.900300	0.992600	0.770550
C821	C82	0.937900	0.895100	0.799170
H811	H81	0.002600	0.861800	0.781200
C831	C83	0.880400	0.846800	0.854080
H821	H82	0.907100	0.780200	0.873300
C841	C84	0.960900	0.047200	0.711000
H831	H83	0.943500	0.122300	0.711000
H841	H84	0.035500	0.028900	0.714300
N151	N15	0.137200	0.140480	0.474840
C851	C85	0.056000	0.199800	0.503370
H851	H85	0.043100	0.269800	0.484800
C861	C86	0.990500	0.163600	0.558490
H861	H86	0.934000	0.208100	0.577200
C871	C87	0.008300	0.061300	0.586170
C881	C88	0.093300	0.001000	0.557960
H871	H87	0.109400	0.931500	0.576700
C891	C89	0.154900	0.041900	0.502590
H881	H88	0.212000	0.998800	0.483300
C901	C90	0.937400	0.018500	0.645620
H891	H89	0.864900	0.045300	0.639400
H901	H90	0.945400	0.942800	0.648200
N161	N16	0.805510	0.704310	0.004190
C911	C91	0.786300	0.606400	0.010950
H911	H91	0.729400	0.592300	0.992000
C921	C92	0.845700	0.525700	0.044170
H921	H92	0.828800	0.457900	0.048500
C931	C93	0.930400	0.544500	0.071270
C941	C94	0.953000	0.644300	0.061460
H931	H93	0.012100	0.659800	0.077300
C951	C95	0.889200	0.721600	0.028470
H941	H94	0.905400	0.789800	0.022800
C961	C96	0.992600	0.461800	0.113030
H951	H95	0.985400	0.393600	0.101800
H961	H96	0.066500	0.471100	0.103600
Zn61	Zn6	0.232470	0.188320	0.390190
N171	N17	0.138700	0.274840	0.326550
C971	C97	0.035900	0.275800	0.333470
H971	H97	0.004200	0.233700	0.370400
C981	C98	0.974300	0.335500	0.289030
H981	H98	0.902000	0.333500	0.295400
C991	C99	0.018700	0.398300	0.235100
C1001	C100	0.124900	0.397100	0.228710
H991	H99	0.158500	0.439200	0.192700
C1011	C101	0.181900	0.335200	0.274480
H1001	H100	0.254500	0.335300	0.268900
C1021	C102	0.954000	0.467800	0.187260
H1011	H101	0.882700	0.450400	0.196800
H1021	H102	0.951500	0.539500	0.195900
N181	N18	0.316550	0.288000	0.415620
C1031	C103	0.272400	0.356900	0.457490
H1031	H103	0.202700	0.354400	0.476700
C1041	C104	0.323800	0.430300	0.473330
H1041	H104	0.289200	0.477800	0.502300
C1051	C105	0.426800	0.435300	0.446950
C1061	C106	0.472800	0.362100	0.405350
H1051	H105	0.543400	0.361000	0.387400
C1071	C107	0.416700	0.291700	0.390170
H1061	H106	0.449400	0.243900	0.360800
C1081	C108	0.485500	0.514100	0.464010
H1071	H107	0.549100	0.518500	0.431800
H1081	H108	0.442900	0.582100	0.460100
