data_YIZGOF_clean_PM
_symmetry_space_group_name_H-M	'P1'
_cell_length_a	18.698000
_cell_length_b	18.698000
_cell_length_c	9.395000
_cell_angle_alpha	90.000000
_cell_angle_beta	90.000000
_cell_angle_gamma	90.000000
_symmetry_Int_Tables_number 1

loop_
_symmetry_equiv_pos_as_xyz
'x,y,z'

loop_
_atom_site_label
_atom_site_type_symbol
_atom_site_fract_x
_atom_site_fract_y
_atom_site_fract_z
P11	P1	0.566080	0.333970	0.091100
P21	P2	0.450840	0.165910	0.839300
P31	P3	0.565610	0.056260	0.336500
Al11	Al1	0.454540	0.334540	0.841200
Al21	Al2	0.564290	0.447710	0.334300
Al31	Al3	0.563810	0.166290	0.084400
O11	O1	0.485800	0.158200	0.987800
O21	O2	0.377600	0.127300	0.841100
O31	O3	0.438100	0.245700	0.805000
O41	O4	0.496700	0.342700	0.003900
O51	O5	0.556900	0.371000	0.235700
O61	O6	0.630600	0.366100	0.010600
O71	O7	0.582900	0.254500	0.119800
O81	O8	0.500000	0.134600	0.723200
O91	O9	0.494800	0.015100	0.323200
O101	O10	0.578300	0.079300	0.491600
O111	O11	0.629100	0.010500	0.287300
O121	O12	0.559400	0.124900	0.246600
P41	P4	0.933920	0.166030	0.091100
P51	P5	0.049160	0.334090	0.839300
P61	P6	0.934390	0.443740	0.336500
Al41	Al4	0.045460	0.165460	0.841200
Al51	Al5	0.935710	0.052290	0.334300
Al61	Al6	0.936190	0.333710	0.084400
O131	O13	0.014200	0.341800	0.987800
O141	O14	0.122400	0.372700	0.841100
O151	O15	0.061900	0.254300	0.805000
O161	O16	0.003300	0.157300	0.003900
O171	O17	0.943100	0.129000	0.235700
O181	O18	0.869400	0.133900	0.010600
O191	O19	0.917100	0.245500	0.119800
O201	O20	0.000000	0.365400	0.723200
O211	O21	0.005200	0.484900	0.323200
O221	O22	0.921700	0.420700	0.491600
O231	O23	0.870900	0.489500	0.287300
O241	O24	0.940600	0.375100	0.246600
P71	P7	0.166030	0.566080	0.091100
P81	P8	0.334090	0.450840	0.839300
P91	P9	0.443740	0.565610	0.336500
Al71	Al7	0.165460	0.454540	0.841200
Al81	Al8	0.052290	0.564290	0.334300
Al91	Al9	0.333710	0.563810	0.084400
O251	O25	0.341800	0.485800	0.987800
O261	O26	0.372700	0.377600	0.841100
O271	O27	0.254300	0.438100	0.805000
O281	O28	0.157300	0.496700	0.003900
O291	O29	0.129000	0.556900	0.235700
O301	O30	0.133900	0.630600	0.010600
O311	O31	0.245500	0.582900	0.119800
O321	O32	0.365400	0.500000	0.723200
O331	O33	0.484900	0.494800	0.323200
O341	O34	0.420700	0.578300	0.491600
O351	O35	0.489500	0.629100	0.287300
O361	O36	0.375100	0.559400	0.246600
P101	P10	0.333970	0.933920	0.091100
P111	P11	0.165910	0.049160	0.839300
P121	P12	0.056260	0.934390	0.336500
Al101	Al10	0.334540	0.045460	0.841200
Al111	Al11	0.447710	0.935710	0.334300
Al121	Al12	0.166290	0.936190	0.084400
O371	O37	0.158200	0.014200	0.987800
O381	O38	0.127300	0.122400	0.841100
O391	O39	0.245700	0.061900	0.805000
O401	O40	0.342700	0.003300	0.003900
O411	O41	0.371000	0.943100	0.235700
O421	O42	0.366100	0.869400	0.010600
O431	O43	0.254500	0.917100	0.119800
O441	O44	0.134600	0.000000	0.723200
O451	O45	0.015100	0.005200	0.323200
O461	O46	0.079300	0.921700	0.491600
O471	O47	0.010500	0.870900	0.287300
O481	O48	0.124900	0.940600	0.246600
P131	P13	0.433920	0.666030	0.908900
P141	P14	0.549160	0.834090	0.160700
P151	P15	0.434390	0.943740	0.663500
Al131	Al13	0.545460	0.665460	0.158800
Al141	Al14	0.435710	0.552290	0.665700
Al151	Al15	0.436190	0.833710	0.915600
O491	O49	0.514200	0.841800	0.012200
O501	O50	0.622400	0.872700	0.158900
O511	O51	0.561900	0.754300	0.195000
O521	O52	0.503300	0.657300	0.996100
O531	O53	0.443100	0.629000	0.764300
O541	O54	0.369400	0.633900	0.989400
O551	O55	0.417100	0.745500	0.880200
O561	O56	0.500000	0.865400	0.276800
O571	O57	0.505200	0.984900	0.676800
O581	O58	0.421700	0.920700	0.508400
O591	O59	0.370900	0.989500	0.712700
O601	O60	0.440600	0.875100	0.753400
P161	P16	0.066080	0.833970	0.908900
P171	P17	0.950840	0.665910	0.160700
P181	P18	0.065610	0.556260	0.663500
Al161	Al16	0.954540	0.834540	0.158800
Al171	Al17	0.064290	0.947710	0.665700
Al181	Al18	0.063810	0.666290	0.915600
O611	O61	0.985800	0.658200	0.012200
O621	O62	0.877600	0.627300	0.158900
O631	O63	0.938100	0.745700	0.195000
O641	O64	0.996700	0.842700	0.996100
O651	O65	0.056900	0.871000	0.764300
O661	O66	0.130600	0.866100	0.989400
O671	O67	0.082900	0.754500	0.880200
O681	O68	0.000000	0.634600	0.276800
O691	O69	0.994800	0.515100	0.676800
O701	O70	0.078300	0.579300	0.508400
O711	O71	0.129100	0.510500	0.712700
O721	O72	0.059400	0.624900	0.753400
P191	P19	0.833970	0.433920	0.908900
P201	P20	0.665910	0.549160	0.160700
P211	P21	0.556260	0.434390	0.663500
Al191	Al19	0.834540	0.545460	0.158800
Al201	Al20	0.947710	0.435710	0.665700
Al211	Al21	0.666290	0.436190	0.915600
O731	O73	0.658200	0.514200	0.012200
O741	O74	0.627300	0.622400	0.158900
O751	O75	0.745700	0.561900	0.195000
O761	O76	0.842700	0.503300	0.996100
O771	O77	0.871000	0.443100	0.764300
O781	O78	0.866100	0.369400	0.989400
O791	O79	0.754500	0.417100	0.880200
O801	O80	0.634600	0.500000	0.276800
O811	O81	0.515100	0.505200	0.676800
O821	O82	0.579300	0.421700	0.508400
O831	O83	0.510500	0.370900	0.712700
O841	O84	0.624900	0.440600	0.753400
P221	P22	0.666030	0.066080	0.908900
P231	P23	0.834090	0.950840	0.160700
P241	P24	0.943740	0.065610	0.663500
Al221	Al22	0.665460	0.954540	0.158800
Al231	Al23	0.552290	0.064290	0.665700
Al241	Al24	0.833710	0.063810	0.915600
O851	O85	0.841800	0.985800	0.012200
O861	O86	0.872700	0.877600	0.158900
O871	O87	0.754300	0.938100	0.195000
O881	O88	0.657300	0.996700	0.996100
O891	O89	0.629000	0.056900	0.764300
O901	O90	0.633900	0.130600	0.989400
O911	O91	0.745500	0.082900	0.880200
O921	O92	0.865400	0.000000	0.276800
O931	O93	0.984900	0.994800	0.676800
O941	O94	0.920700	0.078300	0.508400
O951	O95	0.989500	0.129100	0.712700
O961	O96	0.875100	0.059400	0.753400
