data_YIZGIZ_clean_PM
_symmetry_space_group_name_H-M	'P1'
_cell_length_a	18.741000
_cell_length_b	18.741000
_cell_length_c	9.414000
_cell_angle_alpha	90.000000
_cell_angle_beta	90.000000
_cell_angle_gamma	90.000000
_symmetry_Int_Tables_number 1

loop_
_symmetry_equiv_pos_as_xyz
'x,y,z'

loop_
_atom_site_label
_atom_site_type_symbol
_atom_site_fract_x
_atom_site_fract_y
_atom_site_fract_z
P11	P1	0.565000	0.052400	0.334100
P21	P2	0.665900	0.064100	0.916000
P31	P3	0.454500	0.165300	0.842800
Al11	Al1	0.565900	0.166050	0.092500
Al21	Al2	0.666530	0.950500	0.159800
Al31	Al3	0.443920	0.934800	0.336300
O11	O1	0.658800	0.987300	0.010700
O21	O2	0.495800	0.157200	0.007000
O31	O3	0.624800	0.058100	0.751300
O41	O4	0.372500	0.122300	0.841300
O51	O5	0.438100	0.253900	0.805100
O61	O6	0.754100	0.081200	0.879600
O71	O7	0.510000	0.129100	0.713000
O81	O8	0.630500	0.134400	0.011700
O91	O9	0.484900	0.005700	0.325500
O101	O10	0.579200	0.077600	0.510600
O111	O11	0.557700	0.128200	0.237200
O121	O12	0.635000	0.000200	0.278100
P41	P4	0.935000	0.447600	0.334100
P51	P5	0.834100	0.435900	0.916000
P61	P6	0.045500	0.334700	0.842800
Al41	Al4	0.934100	0.333950	0.092500
Al51	Al5	0.833470	0.549500	0.159800
Al61	Al6	0.056080	0.565200	0.336300
O131	O13	0.841200	0.512700	0.010700
O141	O14	0.004200	0.342800	0.007000
O151	O15	0.875200	0.441900	0.751300
O161	O16	0.127500	0.377700	0.841300
O171	O17	0.061900	0.246100	0.805100
O181	O18	0.745900	0.418800	0.879600
O191	O19	0.990000	0.370900	0.713000
O201	O20	0.869500	0.365600	0.011700
O211	O21	0.015100	0.494300	0.325500
O221	O22	0.920800	0.422400	0.510600
O231	O23	0.942300	0.371800	0.237200
O241	O24	0.865000	0.499800	0.278100
P71	P7	0.447600	0.565000	0.334100
P81	P8	0.435900	0.665900	0.916000
P91	P9	0.334700	0.454500	0.842800
Al71	Al7	0.333950	0.565900	0.092500
Al81	Al8	0.549500	0.666530	0.159800
Al91	Al9	0.565200	0.443920	0.336300
O251	O25	0.512700	0.658800	0.010700
O261	O26	0.342800	0.495800	0.007000
O271	O27	0.441900	0.624800	0.751300
O281	O28	0.377700	0.372500	0.841300
O291	O29	0.246100	0.438100	0.805100
O301	O30	0.418800	0.754100	0.879600
O311	O31	0.370900	0.510000	0.713000
O321	O32	0.365600	0.630500	0.011700
O331	O33	0.494300	0.484900	0.325500
O341	O34	0.422400	0.579200	0.510600
O351	O35	0.371800	0.557700	0.237200
O361	O36	0.499800	0.635000	0.278100
P101	P10	0.052400	0.935000	0.334100
P111	P11	0.064100	0.834100	0.916000
P121	P12	0.165300	0.045500	0.842800
Al101	Al10	0.166050	0.934100	0.092500
Al111	Al11	0.950500	0.833470	0.159800
Al121	Al12	0.934800	0.056080	0.336300
O371	O37	0.987300	0.841200	0.010700
O381	O38	0.157200	0.004200	0.007000
O391	O39	0.058100	0.875200	0.751300
O401	O40	0.122300	0.127500	0.841300
O411	O41	0.253900	0.061900	0.805100
O421	O42	0.081200	0.745900	0.879600
O431	O43	0.129100	0.990000	0.713000
O441	O44	0.134400	0.869500	0.011700
O451	O45	0.005700	0.015100	0.325500
O461	O46	0.077600	0.920800	0.510600
O471	O47	0.128200	0.942300	0.237200
O481	O48	0.000200	0.865000	0.278100
P131	P13	0.435000	0.947600	0.665900
P141	P14	0.334100	0.935900	0.084000
P151	P15	0.545500	0.834700	0.157200
Al131	Al13	0.434100	0.833950	0.907500
Al141	Al14	0.333470	0.049500	0.840200
Al151	Al15	0.556080	0.065200	0.663700
O491	O49	0.341200	0.012700	0.989300
O501	O50	0.504200	0.842800	0.993000
O511	O51	0.375200	0.941900	0.248700
O521	O52	0.627500	0.877700	0.158700
O531	O53	0.561900	0.746100	0.194900
O541	O54	0.245900	0.918800	0.120400
O551	O55	0.490000	0.870900	0.287000
O561	O56	0.369500	0.865600	0.988300
O571	O57	0.515100	0.994300	0.674500
O581	O58	0.420800	0.922400	0.489400
O591	O59	0.442300	0.871800	0.762800
O601	O60	0.365000	0.999800	0.721900
P161	P16	0.065000	0.552400	0.665900
P171	P17	0.165900	0.564100	0.084000
P181	P18	0.954500	0.665300	0.157200
Al161	Al16	0.065900	0.666050	0.907500
Al171	Al17	0.166530	0.450500	0.840200
Al181	Al18	0.943920	0.434800	0.663700
O611	O61	0.158800	0.487300	0.989300
O621	O62	0.995800	0.657200	0.993000
O631	O63	0.124800	0.558100	0.248700
O641	O64	0.872500	0.622300	0.158700
O651	O65	0.938100	0.753900	0.194900
O661	O66	0.254100	0.581200	0.120400
O671	O67	0.010000	0.629100	0.287000
O681	O68	0.130500	0.634400	0.988300
O691	O69	0.984900	0.505700	0.674500
O701	O70	0.079200	0.577600	0.489400
O711	O71	0.057700	0.628200	0.762800
O721	O72	0.135000	0.500200	0.721900
P191	P19	0.552400	0.435000	0.665900
P201	P20	0.564100	0.334100	0.084000
P211	P21	0.665300	0.545500	0.157200
Al191	Al19	0.666050	0.434100	0.907500
Al201	Al20	0.450500	0.333470	0.840200
Al211	Al21	0.434800	0.556080	0.663700
O731	O73	0.487300	0.341200	0.989300
O741	O74	0.657200	0.504200	0.993000
O751	O75	0.558100	0.375200	0.248700
O761	O76	0.622300	0.627500	0.158700
O771	O77	0.753900	0.561900	0.194900
O781	O78	0.581200	0.245900	0.120400
O791	O79	0.629100	0.490000	0.287000
O801	O80	0.634400	0.369500	0.988300
O811	O81	0.505700	0.515100	0.674500
O821	O82	0.577600	0.420800	0.489400
O831	O83	0.628200	0.442300	0.762800
O841	O84	0.500200	0.365000	0.721900
P221	P22	0.947600	0.065000	0.665900
P231	P23	0.935900	0.165900	0.084000
P241	P24	0.834700	0.954500	0.157200
Al221	Al22	0.833950	0.065900	0.907500
Al231	Al23	0.049500	0.166530	0.840200
Al241	Al24	0.065200	0.943920	0.663700
O851	O85	0.012700	0.158800	0.989300
O861	O86	0.842800	0.995800	0.993000
O871	O87	0.941900	0.124800	0.248700
O881	O88	0.877700	0.872500	0.158700
O891	O89	0.746100	0.938100	0.194900
O901	O90	0.918800	0.254100	0.120400
O911	O91	0.870900	0.010000	0.287000
O921	O92	0.865600	0.130500	0.988300
O931	O93	0.994300	0.984900	0.674500
O941	O94	0.922400	0.079200	0.489400
O951	O95	0.871800	0.057700	0.762800
O961	O96	0.999800	0.135000	0.721900
