data_YOBYEV_clean_PM
_symmetry_space_group_name_H-M	'P1'
_cell_length_a	25.330000
_cell_length_b	25.330000
_cell_length_c	33.467000
_cell_angle_alpha	90.000000
_cell_angle_beta	90.000000
_cell_angle_gamma	90.000000
_symmetry_Int_Tables_number 1

loop_
_symmetry_equiv_pos_as_xyz
'x,y,z'

loop_
_atom_site_label
_atom_site_type_symbol
_atom_site_fract_x
_atom_site_fract_y
_atom_site_fract_z
Co11	Co1	0.232170	0.861670	0.347770
Zn11	Zn1	0.269090	0.761820	0.288550
Zn21	Zn2	0.235720	0.768890	0.461610
Co21	Co2	0.765760	0.654370	0.465010
O11	O1	0.199740	0.829590	0.399020
O21	O2	0.173870	0.755040	0.426000
O31	O3	0.209610	0.785540	0.323160
O41	O4	0.157680	0.777000	0.269500
O51	O5	0.811200	0.753600	0.229900
O61	O6	0.791500	0.832500	0.255500
O71	O7	0.799240	0.728740	0.456620
O81	O8	0.832130	0.776300	0.506470
O91	O9	0.321370	0.755390	0.331400
O101	O10	0.306210	0.832980	0.361800
O111	O11	0.301980	0.768310	0.432440
O121	O12	0.352290	0.803710	0.480360
O131	O13	0.701680	0.772500	0.509140
O141	O14	0.698740	0.689500	0.488220
O151	O15	0.678300	0.785530	0.246290
O161	O16	0.612860	0.754000	0.207280
C11	C1	0.119600	0.788000	0.374900
C21	C2	0.117600	0.785400	0.332870
C31	C3	0.067900	0.785400	0.314520
H11	H1	0.066200	0.784800	0.286200
C41	C4	0.020500	0.786300	0.336060
C51	C5	0.022600	0.786000	0.377700
C61	C6	0.072500	0.788500	0.396020
H21	H2	0.074100	0.790700	0.424300
C71	C7	0.168100	0.791600	0.400250
C81	C8	0.163300	0.783300	0.305980
C91	C9	0.970200	0.789000	0.312800
C101	C10	0.959900	0.752100	0.282700
H31	H3	0.985500	0.726200	0.275700
C111	C11	0.910800	0.754200	0.262900
H41	H4	0.903000	0.728800	0.242900
C121	C12	0.874300	0.792100	0.272000
C131	C13	0.884100	0.829300	0.300800
H51	H5	0.858500	0.855600	0.306600
C141	C14	0.933500	0.828000	0.322200
H61	H6	0.940900	0.853300	0.342300
C151	C15	0.820900	0.792200	0.251300
C161	C16	0.975100	0.779800	0.402530
C171	C17	0.939500	0.738400	0.393200
H71	H7	0.946400	0.715800	0.371200
C181	C18	0.894800	0.731000	0.416000
H81	H8	0.870900	0.703400	0.409800
C191	C19	0.884900	0.764100	0.448170
C201	C20	0.920400	0.803100	0.458600
H91	H9	0.914600	0.823700	0.481900
C211	C21	0.965000	0.812200	0.434900
H101	H10	0.988200	0.840500	0.441000
C221	C22	0.834600	0.755500	0.472500
C231	C23	0.382900	0.786200	0.377020
C241	C24	0.391300	0.786500	0.417860
C251	C25	0.441900	0.783400	0.432740
H111	H11	0.447000	0.784700	0.460800
C261	C26	0.485300	0.778600	0.408250
C271	C27	0.479300	0.777000	0.366200
C281	C28	0.427600	0.782400	0.351400
H121	H12	0.422300	0.783600	0.323300
C291	C29	0.332060	0.791300	0.355730
C301	C30	0.344940	0.786700	0.445750
C311	C31	0.538000	0.768000	0.427550
C321	C32	0.567300	0.723800	0.418500
H131	H13	0.555700	0.700100	0.398300
C331	C33	0.613100	0.714100	0.438790
H141	H14	0.632800	0.683200	0.432700
C341	C34	0.631500	0.748100	0.467950
C351	C35	0.603600	0.793700	0.476100
H151	H15	0.617100	0.818300	0.494900
C361	C36	0.556200	0.803600	0.457100
H161	H16	0.536000	0.834000	0.463700
C371	C37	0.681900	0.735800	0.489330
C381	C38	0.521800	0.773900	0.336460
C391	C39	0.512000	0.742700	0.303200
H171	H17	0.480200	0.722900	0.301600
C401	C40	0.548600	0.740200	0.272010
H181	H18	0.542400	0.717800	0.249700
C411	C41	0.594400	0.771000	0.273970
C421	C42	0.603800	0.802400	0.308200
H191	H19	0.635200	0.822700	0.310000
C431	C43	0.567600	0.803700	0.338800
H201	H20	0.574100	0.825000	0.361700
C441	C44	0.631500	0.770800	0.239430
Zn31	Zn3	0.638330	0.732170	0.152230
Co31	Co3	0.732170	0.361670	0.847770
Zn41	Zn4	0.769090	0.261820	0.788550
Zn51	Zn5	0.735720	0.268890	0.961610
Co41	Co4	0.265760	0.154370	0.965010
O171	O17	0.699740	0.329590	0.899020
O181	O18	0.673870	0.255040	0.926000
O191	O19	0.709610	0.285540	0.823160
O201	O20	0.657680	0.277000	0.769500
O211	O21	0.311200	0.253600	0.729900
O221	O22	0.291500	0.332500	0.755500
O231	O23	0.299240	0.228740	0.956620
O241	O24	0.332130	0.276300	0.006470
O251	O25	0.821370	0.255390	0.831400
O261	O26	0.806210	0.332980	0.861800
O271	O27	0.801980	0.268310	0.932440
O281	O28	0.852290	0.303710	0.980360
O291	O29	0.201680	0.272500	0.009140
O301	O30	0.198740	0.189500	0.988220
O311	O31	0.178300	0.285530	0.746290
O321	O32	0.112860	0.254000	0.707280
C451	C45	0.619600	0.288000	0.874900
C461	C46	0.617600	0.285400	0.832870
C471	C47	0.567900	0.285400	0.814520
H211	H21	0.566200	0.284800	0.786200
C481	C48	0.520500	0.286300	0.836060
C491	C49	0.522600	0.286000	0.877700
C501	C50	0.572500	0.288500	0.896020
H221	H22	0.574100	0.290700	0.924300
C511	C51	0.668100	0.291600	0.900250
C521	C52	0.663300	0.283300	0.805980
C531	C53	0.470200	0.289000	0.812800
C541	C54	0.459900	0.252100	0.782700
H231	H23	0.485500	0.226200	0.775700
C551	C55	0.410800	0.254200	0.762900
H241	H24	0.403000	0.228800	0.742900
C561	C56	0.374300	0.292100	0.772000
C571	C57	0.384100	0.329300	0.800800
H251	H25	0.358500	0.355600	0.806600
C581	C58	0.433500	0.328000	0.822200
H261	H26	0.440900	0.353300	0.842300
C591	C59	0.320900	0.292200	0.751300
C601	C60	0.475100	0.279800	0.902530
C611	C61	0.439500	0.238400	0.893200
H271	H27	0.446400	0.215800	0.871200
C621	C62	0.394800	0.231000	0.916000
H281	H28	0.370900	0.203400	0.909800
C631	C63	0.384900	0.264100	0.948170
C641	C64	0.420400	0.303100	0.958600
H291	H29	0.414600	0.323700	0.981900
C651	C65	0.465000	0.312200	0.934900
H301	H30	0.488200	0.340500	0.941000
C661	C66	0.334600	0.255500	0.972500
C671	C67	0.882900	0.286200	0.877020
C681	C68	0.891300	0.286500	0.917860
C691	C69	0.941900	0.283400	0.932740
H311	H31	0.947000	0.284700	0.960800
C701	C70	0.985300	0.278600	0.908250
C711	C71	0.979300	0.277000	0.866200
C721	C72	0.927600	0.282400	0.851400
H321	H32	0.922300	0.283600	0.823300
C731	C73	0.832060	0.291300	0.855730
C741	C74	0.844940	0.286700	0.945750
C751	C75	0.038000	0.268000	0.927550
C761	C76	0.067300	0.223800	0.918500
H331	H33	0.055700	0.200100	0.898300
C771	C77	0.113100	0.214100	0.938790
H341	H34	0.132800	0.183200	0.932700
C781	C78	0.131500	0.248100	0.967950
C791	C79	0.103600	0.293700	0.976100
H351	H35	0.117100	0.318300	0.994900
C801	C80	0.056200	0.303600	0.957100
H361	H36	0.036000	0.334000	0.963700
C811	C81	0.181900	0.235800	0.989330
C821	C82	0.021800	0.273900	0.836460
C831	C83	0.012000	0.242700	0.803200
H371	H37	0.980200	0.222900	0.801600
C841	C84	0.048600	0.240200	0.772010
H381	H38	0.042400	0.217800	0.749700
C851	C85	0.094400	0.271000	0.773970
C861	C86	0.103800	0.302400	0.808200
H391	H39	0.135200	0.322700	0.810000
C871	C87	0.067600	0.303700	0.838800
H401	H40	0.074100	0.325000	0.861700
C881	C88	0.131500	0.270800	0.739430
Zn61	Zn6	0.138330	0.232170	0.652230
Co51	Co5	0.767830	0.138330	0.347770
Zn71	Zn7	0.730910	0.238180	0.288550
Zn81	Zn8	0.764280	0.231110	0.461610
Co61	Co6	0.234240	0.345630	0.465010
O331	O33	0.800260	0.170410	0.399020
O341	O34	0.826130	0.244960	0.426000
O351	O35	0.790390	0.214460	0.323160
O361	O36	0.842320	0.223000	0.269500
O371	O37	0.188800	0.246400	0.229900
O381	O38	0.208500	0.167500	0.255500
O391	O39	0.200760	0.271260	0.456620
O401	O40	0.167870	0.223700	0.506470
O411	O41	0.678630	0.244610	0.331400
O421	O42	0.693790	0.167020	0.361800
O431	O43	0.698020	0.231690	0.432440
O441	O44	0.647710	0.196290	0.480360
O451	O45	0.298320	0.227500	0.509140
O461	O46	0.301260	0.310500	0.488220
O471	O47	0.321700	0.214470	0.246290
O481	O48	0.387140	0.246000	0.207280
C891	C89	0.880400	0.212000	0.374900
C901	C90	0.882400	0.214600	0.332870
C911	C91	0.932100	0.214600	0.314520
H411	H41	0.933800	0.215200	0.286200
C921	C92	0.979500	0.213700	0.336060
C931	C93	0.977400	0.214000	0.377700
C941	C94	0.927500	0.211500	0.396020
H421	H42	0.925900	0.209300	0.424300
C951	C95	0.831900	0.208400	0.400250
C961	C96	0.836700	0.216700	0.305980
C971	C97	0.029800	0.211000	0.312800
C981	C98	0.040100	0.247900	0.282700
H431	H43	0.014500	0.273800	0.275700
C991	C99	0.089200	0.245800	0.262900
H441	H44	0.097000	0.271200	0.242900
C1001	C100	0.125700	0.207900	0.272000
C1011	C101	0.115900	0.170700	0.300800
H451	H45	0.141500	0.144400	0.306600
C1021	C102	0.066500	0.172000	0.322200
H461	H46	0.059100	0.146700	0.342300
C1031	C103	0.179100	0.207800	0.251300
C1041	C104	0.024900	0.220200	0.402530
C1051	C105	0.060500	0.261600	0.393200
H471	H47	0.053600	0.284200	0.371200
C1061	C106	0.105200	0.269000	0.416000
H481	H48	0.129100	0.296600	0.409800
C1071	C107	0.115100	0.235900	0.448170
C1081	C108	0.079600	0.196900	0.458600
H491	H49	0.085400	0.176300	0.481900
C1091	C109	0.035000	0.187800	0.434900
H501	H50	0.011800	0.159500	0.441000
C1101	C110	0.165400	0.244500	0.472500
C1111	C111	0.617100	0.213800	0.377020
C1121	C112	0.608700	0.213500	0.417860
C1131	C113	0.558100	0.216600	0.432740
H511	H51	0.553000	0.215300	0.460800
C1141	C114	0.514700	0.221400	0.408250
C1151	C115	0.520700	0.223000	0.366200
C1161	C116	0.572400	0.217600	0.351400
H521	H52	0.577700	0.216400	0.323300
C1171	C117	0.667940	0.208700	0.355730
C1181	C118	0.655060	0.213300	0.445750
C1191	C119	0.462000	0.232000	0.427550
C1201	C120	0.432700	0.276200	0.418500
H531	H53	0.444300	0.299900	0.398300
C1211	C121	0.386900	0.285900	0.438790
H541	H54	0.367200	0.316800	0.432700
C1221	C122	0.368500	0.251900	0.467950
C1231	C123	0.396400	0.206300	0.476100
H551	H55	0.382900	0.181700	0.494900
C1241	C124	0.443800	0.196400	0.457100
H561	H56	0.464000	0.166000	0.463700
C1251	C125	0.318100	0.264200	0.489330
C1261	C126	0.478200	0.226100	0.336460
C1271	C127	0.488000	0.257300	0.303200
H571	H57	0.519800	0.277100	0.301600
C1281	C128	0.451400	0.259800	0.272010
H581	H58	0.457600	0.282200	0.249700
C1291	C129	0.405600	0.229000	0.273970
C1301	C130	0.396200	0.197600	0.308200
H591	H59	0.364800	0.177300	0.310000
C1311	C131	0.432400	0.196300	0.338800
H601	H60	0.425900	0.175000	0.361700
C1321	C132	0.368500	0.229200	0.239430
Zn91	Zn9	0.361670	0.267830	0.152230
Co71	Co7	0.267830	0.638330	0.847770
Zn101	Zn10	0.230910	0.738180	0.788550
Zn111	Zn11	0.264280	0.731110	0.961610
Co81	Co8	0.734240	0.845630	0.965010
O491	O49	0.300260	0.670410	0.899020
O501	O50	0.326130	0.744960	0.926000
O511	O51	0.290390	0.714460	0.823160
O521	O52	0.342320	0.723000	0.769500
O531	O53	0.688800	0.746400	0.729900
O541	O54	0.708500	0.667500	0.755500
O551	O55	0.700760	0.771260	0.956620
O561	O56	0.667870	0.723700	0.006470
O571	O57	0.178630	0.744610	0.831400
O581	O58	0.193790	0.667020	0.861800
O591	O59	0.198020	0.731690	0.932440
O601	O60	0.147710	0.696290	0.980360
O611	O61	0.798320	0.727500	0.009140
O621	O62	0.801260	0.810500	0.988220
O631	O63	0.821700	0.714470	0.746290
O641	O64	0.887140	0.746000	0.707280
C1331	C133	0.380400	0.712000	0.874900
C1341	C134	0.382400	0.714600	0.832870
C1351	C135	0.432100	0.714600	0.814520
H611	H61	0.433800	0.715200	0.786200
C1361	C136	0.479500	0.713700	0.836060
C1371	C137	0.477400	0.714000	0.877700
C1381	C138	0.427500	0.711500	0.896020
H621	H62	0.425900	0.709300	0.924300
C1391	C139	0.331900	0.708400	0.900250
C1401	C140	0.336700	0.716700	0.805980
C1411	C141	0.529800	0.711000	0.812800
C1421	C142	0.540100	0.747900	0.782700
H631	H63	0.514500	0.773800	0.775700
C1431	C143	0.589200	0.745800	0.762900
H641	H64	0.597000	0.771200	0.742900
C1441	C144	0.625700	0.707900	0.772000
C1451	C145	0.615900	0.670700	0.800800
H651	H65	0.641500	0.644400	0.806600
C1461	C146	0.566500	0.672000	0.822200
H661	H66	0.559100	0.646700	0.842300
C1471	C147	0.679100	0.707800	0.751300
C1481	C148	0.524900	0.720200	0.902530
C1491	C149	0.560500	0.761600	0.893200
H671	H67	0.553600	0.784200	0.871200
C1501	C150	0.605200	0.769000	0.916000
H681	H68	0.629100	0.796600	0.909800
C1511	C151	0.615100	0.735900	0.948170
C1521	C152	0.579600	0.696900	0.958600
H691	H69	0.585400	0.676300	0.981900
C1531	C153	0.535000	0.687800	0.934900
H701	H70	0.511800	0.659500	0.941000
C1541	C154	0.665400	0.744500	0.972500
C1551	C155	0.117100	0.713800	0.877020
C1561	C156	0.108700	0.713500	0.917860
C1571	C157	0.058100	0.716600	0.932740
H711	H71	0.053000	0.715300	0.960800
C1581	C158	0.014700	0.721400	0.908250
C1591	C159	0.020700	0.723000	0.866200
C1601	C160	0.072400	0.717600	0.851400
H721	H72	0.077700	0.716400	0.823300
C1611	C161	0.167940	0.708700	0.855730
C1621	C162	0.155060	0.713300	0.945750
C1631	C163	0.962000	0.732000	0.927550
C1641	C164	0.932700	0.776200	0.918500
H731	H73	0.944300	0.799900	0.898300
C1651	C165	0.886900	0.785900	0.938790
H741	H74	0.867200	0.816800	0.932700
C1661	C166	0.868500	0.751900	0.967950
C1671	C167	0.896400	0.706300	0.976100
H751	H75	0.882900	0.681700	0.994900
C1681	C168	0.943800	0.696400	0.957100
H761	H76	0.964000	0.666000	0.963700
C1691	C169	0.818100	0.764200	0.989330
C1701	C170	0.978200	0.726100	0.836460
C1711	C171	0.988000	0.757300	0.803200
H771	H77	0.019800	0.777100	0.801600
C1721	C172	0.951400	0.759800	0.772010
H781	H78	0.957600	0.782200	0.749700
C1731	C173	0.905600	0.729000	0.773970
C1741	C174	0.896200	0.697600	0.808200
H791	H79	0.864800	0.677300	0.810000
C1751	C175	0.932400	0.696300	0.838800
H801	H80	0.925900	0.675000	0.861700
C1761	C176	0.868500	0.729200	0.739430
Zn121	Zn12	0.861670	0.767830	0.652230
Zn131	Zn13	0.761820	0.730910	0.711450
Zn141	Zn14	0.768890	0.764280	0.538390
Co91	Co9	0.654370	0.234240	0.534990
O651	O65	0.829590	0.800260	0.600980
O661	O66	0.755040	0.826130	0.574000
O671	O67	0.785540	0.790390	0.676840
O681	O68	0.777000	0.842320	0.730500
O691	O69	0.753600	0.188800	0.770100
O701	O70	0.832500	0.208500	0.744500
O711	O71	0.728740	0.200760	0.543380
O721	O72	0.776300	0.167870	0.493530
O731	O73	0.755390	0.678630	0.668600
O741	O74	0.832980	0.693790	0.638200
O751	O75	0.768310	0.698020	0.567560
O761	O76	0.803710	0.647710	0.519640
O771	O77	0.772500	0.298320	0.490860
O781	O78	0.689500	0.301260	0.511780
O791	O79	0.785530	0.321700	0.753710
O801	O80	0.754000	0.387140	0.792720
C1771	C177	0.788000	0.880400	0.625100
C1781	C178	0.785400	0.882400	0.667130
C1791	C179	0.785400	0.932100	0.685480
H811	H81	0.784800	0.933800	0.713800
C1801	C180	0.786300	0.979500	0.663940
C1811	C181	0.786000	0.977400	0.622300
C1821	C182	0.788500	0.927500	0.603980
H821	H82	0.790700	0.925900	0.575700
C1831	C183	0.791600	0.831900	0.599750
C1841	C184	0.783300	0.836700	0.694020
C1851	C185	0.789000	0.029800	0.687200
C1861	C186	0.752100	0.040100	0.717300
H831	H83	0.726200	0.014500	0.724300
C1871	C187	0.754200	0.089200	0.737100
H841	H84	0.728800	0.097000	0.757100
C1881	C188	0.792100	0.125700	0.728000
C1891	C189	0.829300	0.115900	0.699200
H851	H85	0.855600	0.141500	0.693400
C1901	C190	0.828000	0.066500	0.677800
H861	H86	0.853300	0.059100	0.657700
C1911	C191	0.792200	0.179100	0.748700
C1921	C192	0.779800	0.024900	0.597470
C1931	C193	0.738400	0.060500	0.606800
H871	H87	0.715800	0.053600	0.628800
C1941	C194	0.731000	0.105200	0.584000
H881	H88	0.703400	0.129100	0.590200
C1951	C195	0.764100	0.115100	0.551830
C1961	C196	0.803100	0.079600	0.541400
H891	H89	0.823700	0.085400	0.518100
C1971	C197	0.812200	0.035000	0.565100
H901	H90	0.840500	0.011800	0.559000
C1981	C198	0.755500	0.165400	0.527500
C1991	C199	0.786200	0.617100	0.622980
C2001	C200	0.786500	0.608700	0.582140
C2011	C201	0.783400	0.558100	0.567260
H911	H91	0.784700	0.553000	0.539200
C2021	C202	0.778600	0.514700	0.591750
C2031	C203	0.777000	0.520700	0.633800
C2041	C204	0.782400	0.572400	0.648600
H921	H92	0.783600	0.577700	0.676700
C2051	C205	0.791300	0.667940	0.644270
C2061	C206	0.786700	0.655060	0.554250
C2071	C207	0.768000	0.462000	0.572450
C2081	C208	0.723800	0.432700	0.581500
H931	H93	0.700100	0.444300	0.601700
C2091	C209	0.714100	0.386900	0.561210
H941	H94	0.683200	0.367200	0.567300
C2101	C210	0.748100	0.368500	0.532050
C2111	C211	0.793700	0.396400	0.523900
H951	H95	0.818300	0.382900	0.505100
C2121	C212	0.803600	0.443800	0.542900
H961	H96	0.834000	0.464000	0.536300
C2131	C213	0.735800	0.318100	0.510670
C2141	C214	0.773900	0.478200	0.663540
C2151	C215	0.742700	0.488000	0.696800
H971	H97	0.722900	0.519800	0.698400
C2161	C216	0.740200	0.451400	0.727990
H981	H98	0.717800	0.457600	0.750300
C2171	C217	0.771000	0.405600	0.726030
C2181	C218	0.802400	0.396200	0.691800
H991	H99	0.822700	0.364800	0.690000
C2191	C219	0.803700	0.432400	0.661200
H1001	H100	0.825000	0.425900	0.638300
C2201	C220	0.770800	0.368500	0.760570
Zn151	Zn15	0.261820	0.230910	0.211450
Zn161	Zn16	0.268890	0.264280	0.038390
Co101	Co10	0.154370	0.734240	0.034990
O811	O81	0.329590	0.300260	0.100980
O821	O82	0.255040	0.326130	0.074000
O831	O83	0.285540	0.290390	0.176840
O841	O84	0.277000	0.342320	0.230500
O851	O85	0.253600	0.688800	0.270100
O861	O86	0.332500	0.708500	0.244500
O871	O87	0.228740	0.700760	0.043380
O881	O88	0.276300	0.667870	0.993530
O891	O89	0.255390	0.178630	0.168600
O901	O90	0.332980	0.193790	0.138200
O911	O91	0.268310	0.198020	0.067560
O921	O92	0.303710	0.147710	0.019640
O931	O93	0.272500	0.798320	0.990860
O941	O94	0.189500	0.801260	0.011780
O951	O95	0.285530	0.821700	0.253710
O961	O96	0.254000	0.887140	0.292720
C2211	C221	0.288000	0.380400	0.125100
C2221	C222	0.285400	0.382400	0.167130
C2231	C223	0.285400	0.432100	0.185480
H1011	H101	0.284800	0.433800	0.213800
C2241	C224	0.286300	0.479500	0.163940
C2251	C225	0.286000	0.477400	0.122300
C2261	C226	0.288500	0.427500	0.103980
H1021	H102	0.290700	0.425900	0.075700
C2271	C227	0.291600	0.331900	0.099750
C2281	C228	0.283300	0.336700	0.194020
C2291	C229	0.289000	0.529800	0.187200
C2301	C230	0.252100	0.540100	0.217300
H1031	H103	0.226200	0.514500	0.224300
C2311	C231	0.254200	0.589200	0.237100
H1041	H104	0.228800	0.597000	0.257100
C2321	C232	0.292100	0.625700	0.228000
C2331	C233	0.329300	0.615900	0.199200
H1051	H105	0.355600	0.641500	0.193400
C2341	C234	0.328000	0.566500	0.177800
H1061	H106	0.353300	0.559100	0.157700
C2351	C235	0.292200	0.679100	0.248700
C2361	C236	0.279800	0.524900	0.097470
C2371	C237	0.238400	0.560500	0.106800
H1071	H107	0.215800	0.553600	0.128800
C2381	C238	0.231000	0.605200	0.084000
H1081	H108	0.203400	0.629100	0.090200
C2391	C239	0.264100	0.615100	0.051830
C2401	C240	0.303100	0.579600	0.041400
H1091	H109	0.323700	0.585400	0.018100
C2411	C241	0.312200	0.535000	0.065100
H1101	H110	0.340500	0.511800	0.059000
C2421	C242	0.255500	0.665400	0.027500
C2431	C243	0.286200	0.117100	0.122980
C2441	C244	0.286500	0.108700	0.082140
C2451	C245	0.283400	0.058100	0.067260
H1111	H111	0.284700	0.053000	0.039200
C2461	C246	0.278600	0.014700	0.091750
C2471	C247	0.277000	0.020700	0.133800
C2481	C248	0.282400	0.072400	0.148600
H1121	H112	0.283600	0.077700	0.176700
C2491	C249	0.291300	0.167940	0.144270
C2501	C250	0.286700	0.155060	0.054250
C2511	C251	0.268000	0.962000	0.072450
C2521	C252	0.223800	0.932700	0.081500
H1131	H113	0.200100	0.944300	0.101700
C2531	C253	0.214100	0.886900	0.061210
H1141	H114	0.183200	0.867200	0.067300
C2541	C254	0.248100	0.868500	0.032050
C2551	C255	0.293700	0.896400	0.023900
H1151	H115	0.318300	0.882900	0.005100
C2561	C256	0.303600	0.943800	0.042900
H1161	H116	0.334000	0.964000	0.036300
C2571	C257	0.235800	0.818100	0.010670
C2581	C258	0.273900	0.978200	0.163540
C2591	C259	0.242700	0.988000	0.196800
H1171	H117	0.222900	0.019800	0.198400
C2601	C260	0.240200	0.951400	0.227990
H1181	H118	0.217800	0.957600	0.250300
C2611	C261	0.271000	0.905600	0.226030
C2621	C262	0.302400	0.896200	0.191800
H1191	H119	0.322700	0.864800	0.190000
C2631	C263	0.303700	0.932400	0.161200
H1201	H120	0.325000	0.925900	0.138300
C2641	C264	0.270800	0.868500	0.260570
Zn171	Zn17	0.238180	0.269090	0.711450
Zn181	Zn18	0.231110	0.235720	0.538390
Co111	Co11	0.345630	0.765760	0.534990
O971	O97	0.170410	0.199740	0.600980
O981	O98	0.244960	0.173870	0.574000
O991	O99	0.214460	0.209610	0.676840
O1001	O100	0.223000	0.157680	0.730500
O1011	O101	0.246400	0.811200	0.770100
O1021	O102	0.167500	0.791500	0.744500
O1031	O103	0.271260	0.799240	0.543380
O1041	O104	0.223700	0.832130	0.493530
O1051	O105	0.244610	0.321370	0.668600
O1061	O106	0.167020	0.306210	0.638200
O1071	O107	0.231690	0.301980	0.567560
O1081	O108	0.196290	0.352290	0.519640
O1091	O109	0.227500	0.701680	0.490860
O1101	O110	0.310500	0.698740	0.511780
O1111	O111	0.214470	0.678300	0.753710
O1121	O112	0.246000	0.612860	0.792720
C2651	C265	0.212000	0.119600	0.625100
C2661	C266	0.214600	0.117600	0.667130
C2671	C267	0.214600	0.067900	0.685480
H1211	H121	0.215200	0.066200	0.713800
C2681	C268	0.213700	0.020500	0.663940
C2691	C269	0.214000	0.022600	0.622300
C2701	C270	0.211500	0.072500	0.603980
H1221	H122	0.209300	0.074100	0.575700
C2711	C271	0.208400	0.168100	0.599750
C2721	C272	0.216700	0.163300	0.694020
C2731	C273	0.211000	0.970200	0.687200
C2741	C274	0.247900	0.959900	0.717300
H1231	H123	0.273800	0.985500	0.724300
C2751	C275	0.245800	0.910800	0.737100
H1241	H124	0.271200	0.903000	0.757100
C2761	C276	0.207900	0.874300	0.728000
C2771	C277	0.170700	0.884100	0.699200
H1251	H125	0.144400	0.858500	0.693400
C2781	C278	0.172000	0.933500	0.677800
H1261	H126	0.146700	0.940900	0.657700
C2791	C279	0.207800	0.820900	0.748700
C2801	C280	0.220200	0.975100	0.597470
C2811	C281	0.261600	0.939500	0.606800
H1271	H127	0.284200	0.946400	0.628800
C2821	C282	0.269000	0.894800	0.584000
H1281	H128	0.296600	0.870900	0.590200
C2831	C283	0.235900	0.884900	0.551830
C2841	C284	0.196900	0.920400	0.541400
H1291	H129	0.176300	0.914600	0.518100
C2851	C285	0.187800	0.965000	0.565100
H1301	H130	0.159500	0.988200	0.559000
C2861	C286	0.244500	0.834600	0.527500
C2871	C287	0.213800	0.382900	0.622980
C2881	C288	0.213500	0.391300	0.582140
C2891	C289	0.216600	0.441900	0.567260
H1311	H131	0.215300	0.447000	0.539200
C2901	C290	0.221400	0.485300	0.591750
C2911	C291	0.223000	0.479300	0.633800
C2921	C292	0.217600	0.427600	0.648600
H1321	H132	0.216400	0.422300	0.676700
C2931	C293	0.208700	0.332060	0.644270
C2941	C294	0.213300	0.344940	0.554250
C2951	C295	0.232000	0.538000	0.572450
C2961	C296	0.276200	0.567300	0.581500
H1331	H133	0.299900	0.555700	0.601700
C2971	C297	0.285900	0.613100	0.561210
H1341	H134	0.316800	0.632800	0.567300
C2981	C298	0.251900	0.631500	0.532050
C2991	C299	0.206300	0.603600	0.523900
H1351	H135	0.181700	0.617100	0.505100
C3001	C300	0.196400	0.556200	0.542900
H1361	H136	0.166000	0.536000	0.536300
C3011	C301	0.264200	0.681900	0.510670
C3021	C302	0.226100	0.521800	0.663540
C3031	C303	0.257300	0.512000	0.696800
H1371	H137	0.277100	0.480200	0.698400
C3041	C304	0.259800	0.548600	0.727990
H1381	H138	0.282200	0.542400	0.750300
C3051	C305	0.229000	0.594400	0.726030
C3061	C306	0.197600	0.603800	0.691800
H1391	H139	0.177300	0.635200	0.690000
C3071	C307	0.196300	0.567600	0.661200
H1401	H140	0.175000	0.574100	0.638300
C3081	C308	0.229200	0.631500	0.760570
Zn191	Zn19	0.738180	0.769090	0.211450
Zn201	Zn20	0.731110	0.735720	0.038390
Co121	Co12	0.845630	0.265760	0.034990
O1131	O113	0.670410	0.699740	0.100980
O1141	O114	0.744960	0.673870	0.074000
O1151	O115	0.714460	0.709610	0.176840
O1161	O116	0.723000	0.657680	0.230500
O1171	O117	0.746400	0.311200	0.270100
O1181	O118	0.667500	0.291500	0.244500
O1191	O119	0.771260	0.299240	0.043380
O1201	O120	0.723700	0.332130	0.993530
O1211	O121	0.744610	0.821370	0.168600
O1221	O122	0.667020	0.806210	0.138200
O1231	O123	0.731690	0.801980	0.067560
O1241	O124	0.696290	0.852290	0.019640
O1251	O125	0.727500	0.201680	0.990860
O1261	O126	0.810500	0.198740	0.011780
O1271	O127	0.714470	0.178300	0.253710
O1281	O128	0.746000	0.112860	0.292720
C3091	C309	0.712000	0.619600	0.125100
C3101	C310	0.714600	0.617600	0.167130
C3111	C311	0.714600	0.567900	0.185480
H1411	H141	0.715200	0.566200	0.213800
C3121	C312	0.713700	0.520500	0.163940
C3131	C313	0.714000	0.522600	0.122300
C3141	C314	0.711500	0.572500	0.103980
H1421	H142	0.709300	0.574100	0.075700
C3151	C315	0.708400	0.668100	0.099750
C3161	C316	0.716700	0.663300	0.194020
C3171	C317	0.711000	0.470200	0.187200
C3181	C318	0.747900	0.459900	0.217300
H1431	H143	0.773800	0.485500	0.224300
C3191	C319	0.745800	0.410800	0.237100
H1441	H144	0.771200	0.403000	0.257100
C3201	C320	0.707900	0.374300	0.228000
C3211	C321	0.670700	0.384100	0.199200
H1451	H145	0.644400	0.358500	0.193400
C3221	C322	0.672000	0.433500	0.177800
H1461	H146	0.646700	0.440900	0.157700
C3231	C323	0.707800	0.320900	0.248700
C3241	C324	0.720200	0.475100	0.097470
C3251	C325	0.761600	0.439500	0.106800
H1471	H147	0.784200	0.446400	0.128800
C3261	C326	0.769000	0.394800	0.084000
H1481	H148	0.796600	0.370900	0.090200
C3271	C327	0.735900	0.384900	0.051830
C3281	C328	0.696900	0.420400	0.041400
H1491	H149	0.676300	0.414600	0.018100
C3291	C329	0.687800	0.465000	0.065100
H1501	H150	0.659500	0.488200	0.059000
C3301	C330	0.744500	0.334600	0.027500
C3311	C331	0.713800	0.882900	0.122980
C3321	C332	0.713500	0.891300	0.082140
C3331	C333	0.716600	0.941900	0.067260
H1511	H151	0.715300	0.947000	0.039200
C3341	C334	0.721400	0.985300	0.091750
C3351	C335	0.723000	0.979300	0.133800
C3361	C336	0.717600	0.927600	0.148600
H1521	H152	0.716400	0.922300	0.176700
C3371	C337	0.708700	0.832060	0.144270
C3381	C338	0.713300	0.844940	0.054250
C3391	C339	0.732000	0.038000	0.072450
C3401	C340	0.776200	0.067300	0.081500
H1531	H153	0.799900	0.055700	0.101700
C3411	C341	0.785900	0.113100	0.061210
H1541	H154	0.816800	0.132800	0.067300
C3421	C342	0.751900	0.131500	0.032050
C3431	C343	0.706300	0.103600	0.023900
H1551	H155	0.681700	0.117100	0.005100
C3441	C344	0.696400	0.056200	0.042900
H1561	H156	0.666000	0.036000	0.036300
C3451	C345	0.764200	0.181900	0.010670
C3461	C346	0.726100	0.021800	0.163540
C3471	C347	0.757300	0.012000	0.196800
H1571	H157	0.777100	0.980200	0.198400
C3481	C348	0.759800	0.048600	0.227990
H1581	H158	0.782200	0.042400	0.250300
C3491	C349	0.729000	0.094400	0.226030
C3501	C350	0.697600	0.103800	0.191800
H1591	H159	0.677300	0.135200	0.190000
C3511	C351	0.696300	0.067600	0.161200
H1601	H160	0.675000	0.074100	0.138300
C3521	C352	0.729200	0.131500	0.260570
