data_YOCDUR_clean_PM
_symmetry_space_group_name_H-M	'P1'
_cell_length_a	24.487800
_cell_length_b	24.487800
_cell_length_c	24.487800
_cell_angle_alpha	62.359800
_cell_angle_beta	85.861700
_cell_angle_gamma	117.640000
_symmetry_Int_Tables_number 1

loop_
_symmetry_equiv_pos_as_xyz
'x,y,z'

loop_
_atom_site_label
_atom_site_type_symbol
_atom_site_fract_x
_atom_site_fract_y
_atom_site_fract_z
Zn11	Zn1	0.768880	0.466500	0.225760
Zn21	Zn2	0.697620	0.005360	0.768880
Zn31	Zn3	0.698500	0.579450	0.189330
Zn41	Zn4	0.880950	0.112170	0.698500
Zn51	Zn5	0.114880	0.905250	0.514090
Zn61	Zn6	0.790370	0.371030	0.114880
Zn71	Zn7	0.225760	0.994640	0.307740
Zn81	Zn8	0.514090	0.628970	0.580660
Zn91	Zn9	0.189330	0.887830	0.231220
Zn101	Zn10	0.580660	0.094750	0.790370
Zn111	Zn11	0.558110	0.030980	0.949790
Zn121	Zn12	0.019230	0.969020	0.472870
Zn131	Zn13	0.307740	0.533500	0.697620
Zn141	Zn14	0.231220	0.420550	0.880950
Zn151	Zn15	0.472870	0.492100	0.558110
Zn161	Zn16	0.949790	0.507900	0.019230
H11	H1	0.146800	0.633600	0.027200
H21	H2	0.703300	0.704000	0.926900
H31	H3	0.842700	0.743400	0.301900
H41	H4	0.340400	0.908100	0.395900
H51	H5	0.787000	0.284400	0.349800
H61	H6	0.900900	0.793300	0.459200
H71	H7	0.537600	0.423800	0.293600
H81	H8	0.318100	0.662400	0.911900
H91	H9	0.879300	0.566600	0.321500
H101	H10	0.219700	0.148100	0.498800
H111	H11	0.260600	0.712300	0.997700
H121	H12	0.696000	0.091900	0.567700
H131	H13	0.395900	0.736300	0.696000
H141	H14	0.032600	0.828500	0.706300
H151	H15	0.900700	0.855400	0.842700
H161	H16	0.936000	0.398500	0.814500
H171	H17	0.165100	0.714600	0.838500
H181	H18	0.420400	0.240100	0.783300
H191	H19	0.976600	0.759900	0.819700
H201	H20	0.997700	0.258300	0.290000
H211	H21	0.795900	0.261100	0.032600
H221	H22	0.838500	0.003600	0.446900
H231	H23	0.349800	0.136800	0.365800
H241	H24	0.000700	0.369800	0.703300
H251	H25	0.027200	0.174000	0.339200
H261	H26	0.911900	0.230000	0.425700
H271	H27	0.907900	0.230100	0.756400
H281	H28	0.567700	0.263700	0.340400
H291	H29	0.451700	0.741700	0.260600
H301	H30	0.446900	0.285400	0.549500
H311	H31	0.353100	0.851900	0.928400
H321	H32	0.512500	0.913500	0.282600
H331	H33	0.293600	0.831200	0.282600
H341	H34	0.926900	0.630200	0.369100
H351	H35	0.549500	0.996400	0.165100
H361	H36	0.459200	0.360100	0.747500
H371	H37	0.783300	0.203700	0.976600
H381	H38	0.944800	0.456300	0.868100
H391	H39	0.498800	0.718500	0.353100
H401	H40	0.365800	0.715600	0.497400
H411	H41	0.706300	0.738900	0.465200
H421	H42	0.511500	0.187100	0.944800
H431	H43	0.344300	0.770000	0.318100
H441	H44	0.282600	0.795100	0.803900
H451	H45	0.800900	0.684400	0.250900
H461	H46	0.928400	0.281500	0.219700
H471	H47	0.453700	0.171600	0.399100
H481	H48	0.497400	0.863200	0.787000
H491	H49	0.282600	0.576200	0.886200
H501	H50	0.111900	0.433400	0.687300
H511	H51	0.486800	0.826000	0.146800
H521	H52	0.399100	0.852800	0.429300
H531	H53	0.429300	0.828400	0.717900
H541	H54	0.747500	0.206700	0.892400
H551	H55	0.954700	0.256600	0.900700
H561	H56	0.369100	0.296000	0.000700
H571	H57	0.819700	0.796300	0.420400
H581	H58	0.814500	0.750500	0.787000
H591	H59	0.803900	0.086500	0.401000
H601	H60	0.462500	0.249500	0.936000
H611	H61	0.883500	0.948200	0.800900
H621	H62	0.401000	0.204900	0.512500
H631	H63	0.322200	0.335700	0.907900
H641	H64	0.868100	0.812900	0.675600
H651	H65	0.064700	0.315600	0.883500
H661	H66	0.687300	0.799200	0.879300
H671	H67	0.290000	0.287700	0.451700
H681	H68	0.675600	0.543700	0.511500
H691	H69	0.013500	0.769900	0.322200
H701	H70	0.425700	0.337600	0.344300
H711	H71	0.339200	0.366400	0.486800
H721	H72	0.321500	0.200800	0.111900
H731	H73	0.892400	0.639900	0.900900
H741	H74	0.787000	0.601500	0.462500
H751	H75	0.301900	0.144600	0.954700
H761	H76	0.756400	0.664300	0.013500
H771	H77	0.886200	0.168800	0.537600
H781	H78	0.465200	0.171500	0.795900
H791	H79	0.250900	0.051800	0.064700
H801	H80	0.717900	0.147200	0.453700
C11	C1	0.323200	0.139200	0.392400
C21	C2	0.477300	0.818600	0.283500
C31	C3	0.280000	0.116200	0.100000
C41	C4	0.808020	0.376900	0.231680
C51	C5	0.468400	0.860800	0.816000
C61	C6	0.985900	0.290700	0.857800
C71	C7	0.730000	0.810300	0.873300
C81	C8	0.368580	0.395200	0.809220
C91	C9	0.470200	0.791900	0.242700
C101	C10	0.836340	0.237200	0.353860
C111	C11	0.990870	0.775000	0.349730
C121	C12	0.816000	0.284400	0.323200
C131	C13	0.890070	0.695200	0.338730
C141	C14	0.851500	0.709300	0.304800
C151	C15	0.812500	0.706200	0.923500
C161	C16	0.345400	0.246600	0.014000
C171	C17	0.357000	0.808600	0.877200
C181	C18	0.341600	0.442200	0.791000
C191	C19	0.333100	0.649600	0.788300
C201	C20	0.377950	0.804500	0.377550
C211	C21	0.507300	0.895600	0.255900
C221	C22	0.379000	0.723000	0.738600
C231	C23	0.426550	0.244500	0.377950
C241	C24	0.283500	0.760800	0.897900
C251	C25	0.245100	0.052500	0.172000
C261	C26	0.400600	0.778200	0.751800
C271	C27	0.912400	0.405700	0.889700
C281	C28	0.172000	0.417100	0.775500
C291	C29	0.430200	0.354100	0.779900
C301	C30	0.704600	0.594300	0.493300
C311	C31	0.341300	0.239200	0.477300
C321	C32	0.470000	0.221800	0.377600
C331	C33	0.795580	0.604800	0.026620
C341	C34	0.817950	0.195500	0.426550
C351	C35	0.994110	0.830900	0.408990
C361	C36	0.493300	0.197900	0.912400
C371	C37	0.866000	0.645900	0.923900
C381	C38	0.382500	0.854000	0.900100
C391	C39	0.541700	0.971400	0.071700
C401	C40	0.923500	0.736000	0.370300
C411	C41	0.872100	0.403100	0.989600
C421	C42	0.760110	0.169100	0.836790
C431	C43	0.450680	0.903100	0.882420
C441	C44	0.846000	0.255200	0.856600
C451	C45	0.495800	0.175700	0.868500
C461	C46	0.989600	0.861700	0.607300
C471	C47	0.370300	0.293800	0.893700
C481	C48	0.956900	0.028600	0.429700
C491	C49	0.869600	0.054400	0.416200
C501	C50	0.413530	0.668100	0.494970
C511	C51	0.306780	0.590500	0.771920
C521	C52	0.738600	0.117600	0.538400
C531	C53	0.784130	0.659400	0.990870
C541	C54	0.897900	0.181400	0.341300
C551	C55	0.466300	0.189000	0.822700
C561	C56	0.858540	0.295300	0.889160
C571	C57	0.982700	0.157100	0.351000
C581	C58	0.529400	0.945600	0.184800
C591	C59	0.275200	0.101200	0.051600
C601	C60	0.955800	0.824300	0.679900
C611	C61	0.805130	0.771200	0.890070
C621	C62	0.836930	0.331900	0.254570
C631	C63	0.935100	0.082300	0.397000
C641	C64	0.470000	0.947300	0.910700
C651	C65	0.688330	0.124500	0.852170
C661	C66	0.836200	0.620000	0.280000
C671	C67	0.471500	0.717400	0.382500
C681	C68	0.438200	0.228900	0.816100
C691	C69	0.464100	0.235300	0.907000
C701	C70	0.637580	0.409500	0.283720
C711	C71	0.900100	0.282600	0.245900
C721	C72	0.955000	0.771100	0.790700
C731	C73	0.751800	0.152400	0.470000
C741	C74	0.562100	0.350400	0.316500
C751	C75	0.889700	0.802100	0.704600
C761	C76	0.100600	0.867400	0.341600
C771	C77	0.436170	0.459500	0.688330
C781	C78	0.377600	0.847600	0.400600
C791	C79	0.254570	0.091500	0.413530
C801	C80	0.889160	0.747700	0.815540
C811	C81	0.332900	0.678100	0.868000
C821	C82	0.338730	0.228800	0.966070
C831	C83	0.988300	0.811000	0.722700
C841	C84	0.452420	0.666900	0.450680
C851	C85	0.775500	0.947500	0.807400
C861	C86	0.966070	0.304800	0.805130
C871	C87	0.779900	0.210100	0.866000
C881	C88	0.023330	0.875500	0.436170
C891	C89	0.857700	0.764700	0.771200
C901	C90	0.790700	0.745700	0.438200
C911	C91	0.314200	0.191400	0.451600
C921	C92	0.847200	0.898800	0.826000
C931	C93	0.231680	0.039700	0.391420
C941	C94	0.026620	0.822200	0.368580
C951	C95	0.852170	0.540500	0.023330
C961	C96	0.809220	0.177800	0.795580
C971	C97	0.400860	0.809800	0.836340
C981	C98	0.416200	0.285800	0.529400
C991	C99	0.071700	0.613400	0.956900
C1001	C100	0.868500	0.364300	0.955800
C1011	C101	0.873300	0.603300	0.316400
C1021	C102	0.491900	0.842900	0.174400
C1031	C103	0.080300	0.396700	0.730000
C1041	C104	0.391420	0.623100	0.568880
C1051	C105	0.311600	0.626700	0.852900
C1061	C106	0.791000	0.132600	0.766800
C1071	C107	0.923900	0.789900	0.430200
C1081	C108	0.910700	0.380700	0.142000
C1091	C109	0.857800	0.843700	0.851500
C1101	C110	0.815540	0.704700	0.436760
C1111	C111	0.722700	0.711000	0.466300
C1121	C112	0.344000	0.882400	0.379000
C1131	C113	0.882420	0.333100	0.214480
C1141	C114	0.304800	0.156300	0.985900
C1151	C115	0.494970	0.908500	0.836930
C1161	C116	0.377550	0.755500	0.817950
C1171	C117	0.877200	0.234200	0.314200
C1181	C118	0.807400	0.582900	0.245100
C1191	C119	0.893700	0.264000	0.812500
C1201	C120	0.408940	0.762800	0.400860
C1211	C121	0.051600	0.326800	0.847200
C1221	C122	0.816100	0.254300	0.955000
C1231	C123	0.826000	0.673200	0.275200
C1241	C124	0.538400	0.277000	0.344000
C1251	C125	0.453900	0.321900	0.345200
C1261	C126	0.316400	0.189700	0.080300
C1271	C127	0.822700	0.289000	0.988300
C1281	C128	0.901200	0.640600	0.345400
C1291	C129	0.147200	0.667900	0.935100
C1301	C130	0.607300	0.596900	0.531000
C1311	C131	0.868000	0.200900	0.453900
C1321	C132	0.477300	0.619300	0.470000
C1331	C133	0.520700	0.917700	0.147200
C1341	C134	0.907000	0.371100	0.857700
C1351	C135	0.531000	0.138300	0.872100
C1361	C136	0.014000	0.359400	0.739400
C1371	C137	0.739400	0.753400	0.901200
C1381	C138	0.242700	0.712900	0.965400
C1391	C139	0.429700	0.386600	0.541700
C1401	C140	0.520400	0.373300	0.315100
C1411	C141	0.349730	0.340600	0.875270
C1421	C142	0.409200	0.297400	0.846000
C1431	C143	0.214480	0.096900	0.452420
C1441	C144	0.875270	0.225000	0.784130
C1451	C145	0.397000	0.332100	0.520700
C1461	C146	0.436760	0.252300	0.858540
C1471	C147	0.771920	0.078700	0.637580
C1481	C148	0.836790	0.596900	0.994110
C1491	C149	0.353860	0.190200	0.408940
C1501	C150	0.392400	0.715600	0.468400
C1511	C151	0.848500	0.104400	0.388300
C1521	C152	0.451600	0.765800	0.357000
C1531	C153	0.316500	0.878600	0.333100
C1541	C154	0.965400	0.208100	0.321700
C1551	C155	0.100000	0.380000	0.783800
C1561	C156	0.351000	0.333700	0.491900
C1571	C157	0.766800	0.557800	0.100600
C1581	C158	0.771200	0.628900	0.464100
C1591	C159	0.388300	0.236800	0.507300
C1601	C160	0.852900	0.164500	0.520400
C1611	C161	0.321700	0.287100	0.470200
C1621	C162	0.856600	0.702600	0.888200
C1631	C163	0.245900	0.146000	0.471500
C1641	C164	0.283720	0.921300	0.306780
C1651	C165	0.888200	0.744800	0.409200
C1661	C166	0.788300	0.121400	0.562100
C1671	C167	0.408990	0.403100	0.760110
C1681	C168	0.174400	0.666300	0.982700
C1691	C169	0.345200	0.799100	0.332900
C1701	C170	0.315100	0.835500	0.311600
C1711	C171	0.568880	0.960300	0.808020
C1721	C172	0.679900	0.635700	0.495800
C1731	C173	0.255900	0.763200	0.848500
C1741	C174	0.142000	0.052700	0.477300
C1751	C175	0.184800	0.714200	0.869600
C1761	C176	0.783800	0.883800	0.836200
O11	O1	0.338360	0.608900	0.717140
O21	O2	0.538820	0.106700	0.925680
O31	O3	0.967620	0.893300	0.567880
O41	O4	0.668570	0.140830	0.804460
O51	O5	0.653980	0.078100	0.912720
O61	O6	0.715340	0.547900	0.128480
O71	O7	0.804460	0.473030	0.054710
O81	O8	0.461490	0.575020	0.533810
O91	O9	0.717140	0.055500	0.673960
O101	O10	0.673960	0.391100	0.270540
O111	O11	0.130470	0.928220	0.336550
O121	O12	0.524600	0.942700	0.040500
O131	O13	0.891170	0.424980	0.113530
O141	O14	0.807210	0.525480	0.262470
O151	O15	0.735230	0.071780	0.797750
O161	O16	0.599020	0.030400	0.770980
O171	O17	0.418100	0.434900	0.524600
O181	O18	0.047000	0.623600	0.912200
O191	O19	0.054710	0.859170	0.472260
O201	O20	0.567880	0.535500	0.538820
O211	O21	0.912200	0.959200	0.464200
O221	O22	0.336550	0.467020	0.735230
O231	O23	0.262470	0.069680	0.212050
O241	O24	0.128480	0.843820	0.323620
O251	O25	0.038820	0.859300	0.594480
O261	O26	0.533810	0.995300	0.891170
O271	O27	0.270540	0.944500	0.338360
O281	O28	0.212050	0.474520	0.718270
O291	O29	0.009180	0.921900	0.424120
O301	O30	0.187820	0.388300	0.822080
O311	O31	0.427690	0.935100	0.953410
O321	O32	0.818900	0.418800	0.251500
O331	O33	0.789620	0.611700	0.200480
O341	O34	0.576600	0.040800	0.047000
O351	O35	0.814810	0.070320	0.657070
O361	O36	0.200480	0.990100	0.187820
O371	O37	0.113530	0.004700	0.461490
O381	O38	0.912720	0.566700	0.009180
O391	O39	0.599900	0.929600	0.818900
O401	O40	0.431380	0.630000	0.599020
O411	O41	0.111490	0.064900	0.507410
O421	O42	0.424120	0.433300	0.653980
O431	O43	0.255510	0.528120	0.814810
O441	O44	0.822080	0.009900	0.789620
O451	O45	0.472260	0.526970	0.668570
O461	O46	0.925680	0.464500	0.967620
O471	O47	0.329700	0.581200	0.599900
O481	O48	0.198620	0.969600	0.431380
O491	O49	0.953410	0.381100	0.111490
O501	O50	0.770980	0.370000	0.198620
O511	O51	0.657070	0.471880	0.272610
O521	O52	0.718270	0.930320	0.807210
O531	O53	0.507410	0.618900	0.427690
O541	O54	0.040500	0.565100	0.016800
O551	O55	0.016800	0.057300	0.418100
O561	O56	0.594480	0.633300	0.546220
O571	O57	0.820480	0.366700	0.038820
O581	O58	0.323620	0.452100	0.832560
O591	O59	0.272610	0.929680	0.255510
O601	O60	0.546220	0.140700	0.820480
O611	O61	0.832560	0.156180	0.715340
O621	O62	0.797750	0.532980	0.130470
O631	O63	0.251500	0.070400	0.329700
O641	O64	0.464200	0.376400	0.576600
