data_YOCLIN_clean_PM
_symmetry_space_group_name_H-M	'P1'
_cell_length_a	18.646400
_cell_length_b	18.646400
_cell_length_c	18.646400
_cell_angle_alpha	60.000000
_cell_angle_beta	60.000000
_cell_angle_gamma	60.000000
_symmetry_Int_Tables_number 1

loop_
_symmetry_equiv_pos_as_xyz
'x,y,z'

loop_
_atom_site_label
_atom_site_type_symbol
_atom_site_fract_x
_atom_site_fract_y
_atom_site_fract_z
Cu11	Cu1	0.000000	0.429900	0.000000
Cu21	Cu2	0.000000	0.000000	0.570100
Cu31	Cu3	0.570100	0.429900	0.000000
Cu41	Cu4	0.429900	0.000000	0.000000
Cu51	Cu5	0.570100	0.000000	0.000000
Cu61	Cu6	0.570100	0.000000	0.429900
Cu71	Cu7	0.429900	0.000000	0.570100
Cu81	Cu8	0.000000	0.429900	0.570100
Cu91	Cu9	0.000000	0.570100	0.429900
Cu101	Cu10	0.000000	0.000000	0.429900
Cu111	Cu11	0.429900	0.570100	0.000000
Cu121	Cu12	0.000000	0.570100	0.000000
H11	H1	0.511600	0.729800	0.729800
H21	H2	0.270200	0.270200	0.971200
H31	H3	0.270200	0.971200	0.488400
H41	H4	0.511600	0.028800	0.729800
H51	H5	0.028800	0.729800	0.511600
H61	H6	0.971200	0.488400	0.270200
H71	H7	0.729800	0.729800	0.511600
H81	H8	0.729800	0.511600	0.028800
H91	H9	0.971200	0.270200	0.488400
H101	H10	0.971200	0.270200	0.270200
H111	H11	0.270200	0.971200	0.270200
H121	H12	0.729800	0.028800	0.729800
H131	H13	0.488400	0.270200	0.971200
H141	H14	0.729800	0.511600	0.729800
H151	H15	0.729800	0.028800	0.511600
H161	H16	0.028800	0.511600	0.729800
H171	H17	0.270200	0.488400	0.971200
H181	H18	0.488400	0.270200	0.270200
H191	H19	0.511600	0.729800	0.028800
H201	H20	0.729800	0.729800	0.028800
H211	H21	0.270200	0.488400	0.270200
H221	H22	0.028800	0.729800	0.729800
H231	H23	0.488400	0.971200	0.270200
H241	H24	0.270200	0.270200	0.488400
C11	C1	0.967900	0.429500	0.301300
C21	C2	0.258800	0.386600	0.386600
C31	C3	0.698700	0.032100	0.570500
C41	C4	0.163200	0.430000	0.976800
C51	C5	0.301300	0.967900	0.301300
C61	C6	0.570000	0.570000	0.023200
C71	C7	0.430000	0.163200	0.976800
C81	C8	0.570000	0.023200	0.570000
C91	C9	0.163200	0.976800	0.430000
C101	C10	0.386600	0.968000	0.386600
C111	C11	0.570500	0.698700	0.032100
C121	C12	0.163200	0.430000	0.430000
C131	C13	0.386600	0.258800	0.968000
C141	C14	0.023200	0.836800	0.570000
C151	C15	0.570000	0.023200	0.836800
C161	C16	0.570500	0.698700	0.698700
C171	C17	0.301300	0.301300	0.429500
C181	C18	0.430000	0.976800	0.430000
C191	C19	0.032100	0.698700	0.570500
C201	C20	0.301300	0.429500	0.967900
C211	C21	0.613400	0.613400	0.032000
C221	C22	0.698700	0.698700	0.032100
C231	C23	0.386600	0.386600	0.258800
C241	C24	0.967900	0.301300	0.301300
C251	C25	0.430000	0.430000	0.976800
C261	C26	0.430000	0.976800	0.163200
C271	C27	0.429500	0.967900	0.301300
C281	C28	0.301300	0.301300	0.967900
C291	C29	0.430000	0.430000	0.163200
C301	C30	0.698700	0.032100	0.698700
C311	C31	0.032100	0.570500	0.698700
C321	C32	0.032000	0.613400	0.741200
C331	C33	0.023200	0.570000	0.836800
C341	C34	0.386600	0.258800	0.386600
C351	C35	0.836800	0.570000	0.023200
C361	C36	0.698700	0.698700	0.570500
C371	C37	0.258800	0.968000	0.386600
C381	C38	0.570000	0.836800	0.570000
C391	C39	0.741200	0.613400	0.613400
C401	C40	0.968000	0.386600	0.386600
C411	C41	0.301300	0.429500	0.301300
C421	C42	0.613400	0.032000	0.613400
C431	C43	0.570000	0.836800	0.023200
C441	C44	0.968000	0.258800	0.386600
C451	C45	0.613400	0.032000	0.741200
C461	C46	0.741200	0.613400	0.032000
C471	C47	0.976800	0.163200	0.430000
C481	C48	0.836800	0.570000	0.570000
C491	C49	0.976800	0.430000	0.430000
C501	C50	0.968000	0.386600	0.258800
C511	C51	0.741200	0.032000	0.613400
C521	C52	0.386600	0.968000	0.258800
C531	C53	0.613400	0.741200	0.613400
C541	C54	0.032000	0.741200	0.613400
C551	C55	0.836800	0.023200	0.570000
C561	C56	0.301300	0.967900	0.429500
C571	C57	0.386600	0.386600	0.968000
C581	C58	0.613400	0.741200	0.032000
C591	C59	0.613400	0.613400	0.741200
C601	C60	0.698700	0.570500	0.698700
C611	C61	0.698700	0.570500	0.032100
C621	C62	0.258800	0.386600	0.968000
C631	C63	0.429500	0.301300	0.301300
C641	C64	0.976800	0.430000	0.163200
C651	C65	0.032000	0.613400	0.613400
C661	C66	0.023200	0.570000	0.570000
C671	C67	0.430000	0.163200	0.430000
C681	C68	0.570000	0.570000	0.836800
C691	C69	0.429500	0.301300	0.967900
C701	C70	0.032100	0.698700	0.698700
C711	C71	0.570500	0.032100	0.698700
C721	C72	0.967900	0.301300	0.429500
O11	O1	0.508310	0.387310	0.979050
O21	O2	0.387310	0.508310	0.125330
O31	O3	0.508310	0.979050	0.387310
O41	O4	0.491690	0.612690	0.020950
O51	O5	0.874670	0.612690	0.491690
O61	O6	0.491690	0.020950	0.612690
O71	O7	0.508310	0.979050	0.125330
O81	O8	0.125330	0.508310	0.979050
O91	O9	0.874670	0.020950	0.491690
O101	O10	0.612690	0.491690	0.020950
O111	O11	0.387310	0.125330	0.979050
O121	O12	0.491690	0.020950	0.874670
O131	O13	0.491690	0.874670	0.612690
O141	O14	0.020950	0.874670	0.491690
O151	O15	0.612690	0.020950	0.874670
O161	O16	0.125330	0.387310	0.508310
O171	O17	0.020950	0.491690	0.874670
O181	O18	0.874670	0.612690	0.020950
O191	O19	0.387310	0.125330	0.508310
O201	O20	0.979050	0.125330	0.508310
O211	O21	0.612690	0.020950	0.491690
O221	O22	0.508310	0.125330	0.387310
O231	O23	0.020950	0.874670	0.612690
O241	O24	0.874670	0.020950	0.612690
O251	O25	0.387310	0.979050	0.508310
O261	O26	0.020950	0.612690	0.491690
O271	O27	0.125330	0.979050	0.387310
O281	O28	0.020950	0.491690	0.612690
O291	O29	0.612690	0.491690	0.874670
O301	O30	0.125330	0.979050	0.508310
O311	O31	0.125330	0.387310	0.979050
O321	O32	0.979050	0.387310	0.508310
O331	O33	0.125330	0.508310	0.387310
O341	O34	0.612690	0.874670	0.491690
O351	O35	0.874670	0.491690	0.612690
O361	O36	0.491690	0.874670	0.020950
O371	O37	0.874670	0.491690	0.020950
O381	O38	0.508310	0.387310	0.125330
O391	O39	0.020950	0.612690	0.874670
O401	O40	0.979050	0.125330	0.387310
O411	O41	0.387310	0.979050	0.125330
O421	O42	0.979050	0.387310	0.125330
O431	O43	0.979050	0.508310	0.125330
O441	O44	0.491690	0.612690	0.874670
O451	O45	0.387310	0.508310	0.979050
O461	O46	0.508310	0.125330	0.979050
O471	O47	0.612690	0.874670	0.020950
O481	O48	0.979050	0.508310	0.387310
