data_YOCMAF_clean_PM
_symmetry_space_group_name_H-M	'P1'
_cell_length_a	10.568400
_cell_length_b	10.568400
_cell_length_c	10.926700
_cell_angle_alpha	78.783600
_cell_angle_beta	62.492500
_cell_angle_gamma	108.745000
_symmetry_Int_Tables_number 1

loop_
_symmetry_equiv_pos_as_xyz
'x,y,z'

loop_
_atom_site_label
_atom_site_type_symbol
_atom_site_fract_x
_atom_site_fract_y
_atom_site_fract_z
Dy11	Dy1	0.244710	0.431310	0.620130
Dy21	Dy2	0.551440	0.864840	0.879870
Dy31	Dy3	0.755290	0.568690	0.379870
Dy41	Dy4	0.448560	0.135160	0.120130
H11	H1	0.963900	0.886300	0.814800
H21	H2	0.104800	0.989600	0.646400
H31	H3	0.733100	0.890800	0.217100
H41	H4	0.201100	0.778700	0.685200
H51	H5	0.136000	0.751200	0.853600
H61	H6	0.607900	0.950200	0.282900
H71	H7	0.036100	0.113700	0.185200
H81	H8	0.895200	0.010400	0.353600
H91	H9	0.266900	0.109200	0.782900
H101	H10	0.798900	0.221300	0.314800
H111	H11	0.864000	0.248800	0.146400
H121	H12	0.392100	0.049800	0.717100
C11	C1	0.953600	0.072300	0.741900
C21	C2	0.989200	0.948000	0.719800
C31	C3	0.903100	0.850300	0.668600
C41	C4	0.499000	0.723900	0.375700
C51	C5	0.314200	0.695500	0.758100
C61	C6	0.167800	0.709000	0.780200
C71	C7	0.018900	0.571700	0.831400
C81	C8	0.599600	0.874700	0.124300
C91	C9	0.046400	0.927700	0.258100
C101	C10	0.010800	0.052000	0.280200
C111	C11	0.096900	0.149700	0.331400
C121	C12	0.501000	0.276100	0.624300
C131	C13	0.685800	0.304500	0.241900
C141	C14	0.832200	0.291000	0.219800
C151	C15	0.981100	0.428300	0.168600
C161	C16	0.400400	0.125300	0.875700
C171	C17	0.624700	0.874700	0.250000
C181	C18	0.375300	0.125300	0.750000
O11	O1	0.067700	0.184300	0.714400
O21	O2	0.813800	0.057400	0.791800
O31	O3	0.983800	0.812700	0.572300
O41	O4	0.753970	0.808870	0.725900
O51	O5	0.352330	0.691570	0.440900
O61	O6	0.542100	0.631500	0.408200
O71	O7	0.398700	0.782100	0.785600
O81	O8	0.349200	0.605600	0.708200
O91	O9	0.885000	0.556100	0.927700
O101	O10	0.034770	0.479870	0.774100
O111	O11	0.632470	0.793230	0.059100
O121	O12	0.539700	0.950300	0.091800
O131	O13	0.932300	0.815700	0.285600
O141	O14	0.186200	0.942600	0.208200
O151	O15	0.016200	0.187300	0.427700
O161	O16	0.246030	0.191130	0.274100
O171	O17	0.647670	0.308430	0.559100
O181	O18	0.457900	0.368500	0.591800
O191	O19	0.601300	0.217900	0.214400
O201	O20	0.650800	0.394400	0.291800
O211	O21	0.115000	0.443900	0.072300
O221	O22	0.965230	0.520130	0.225900
O231	O23	0.367530	0.206770	0.940900
O241	O24	0.460300	0.049700	0.908200
