data_YODRAM_clean_PM
_symmetry_space_group_name_H-M	'P1'
_cell_length_a	13.185200
_cell_length_b	20.019800
_cell_length_c	20.019800
_cell_angle_alpha	103.232000
_cell_angle_beta	107.664000
_cell_angle_gamma	72.336100
_symmetry_Int_Tables_number 1

loop_
_symmetry_equiv_pos_as_xyz
'x,y,z'

loop_
_atom_site_label
_atom_site_type_symbol
_atom_site_fract_x
_atom_site_fract_y
_atom_site_fract_z
Co11	Co1	0.436930	0.818030	0.692670
Co21	Co2	0.067410	0.275670	0.724330
Co31	Co3	0.436930	0.307330	0.181970
Co41	Co4	0.563070	0.692670	0.818030
Co51	Co5	0.322460	0.292540	0.707460
Co61	Co6	0.000000	0.000000	0.000000
Co71	Co7	0.563070	0.181970	0.307330
Co81	Co8	0.932590	0.724330	0.275670
Co91	Co9	0.677540	0.707460	0.292540
H11	H1	0.512100	0.322700	0.058300
H21	H2	0.543800	0.682500	0.063700
H31	H3	0.352900	0.821800	0.952000
H41	H4	0.224200	0.934300	0.682300
H51	H5	0.968400	0.034400	0.150800
H61	H6	0.746700	0.458900	0.348900
H71	H7	0.807000	0.196000	0.560800
H81	H8	0.839200	0.945000	0.312000
H91	H9	0.770900	0.015000	0.886400
H101	H10	0.487900	0.058300	0.322700
H111	H11	0.334000	0.828900	0.534300
H121	H12	0.770900	0.113600	0.985000
H131	H13	0.851200	0.261400	0.738600
H141	H14	0.242400	0.750200	0.657400
H151	H15	0.647100	0.952000	0.821800
H161	H16	0.555600	0.608900	0.188100
H171	H17	0.517400	0.494600	0.168000
H181	H18	0.334000	0.465700	0.171100
H191	H19	0.543800	0.936300	0.317500
H201	H20	0.647100	0.178200	0.048000
H211	H21	0.911700	0.888300	0.111700
H221	H22	0.512100	0.941700	0.677300
H231	H23	0.101600	0.720600	0.566800
H241	H24	0.839200	0.688000	0.055000
H251	H25	0.206000	0.439400	0.655400
H261	H26	0.794000	0.560600	0.344600
H271	H27	0.775800	0.682300	0.934300
H281	H28	0.253300	0.541100	0.651100
H291	H29	0.154500	0.217900	0.093900
H301	H30	0.456200	0.317500	0.936300
H311	H31	0.898400	0.566800	0.720600
H321	H32	0.517400	0.832000	0.505400
H331	H33	0.757600	0.249800	0.342600
H341	H34	0.794000	0.655400	0.439400
H351	H35	0.229100	0.886400	0.015000
H361	H36	0.031600	0.965600	0.849200
H371	H37	0.757600	0.657400	0.750200
H381	H38	0.482600	0.168000	0.494600
H391	H39	0.854900	0.827200	0.172800
H401	H40	0.968400	0.849200	0.965600
H411	H41	0.666000	0.534300	0.828900
H421	H42	0.160800	0.055000	0.688000
H431	H43	0.154500	0.906100	0.782100
H441	H44	0.224200	0.317700	0.065700
H451	H45	0.229100	0.985000	0.113600
H461	H46	0.253300	0.348900	0.458900
H471	H47	0.845500	0.782100	0.906100
H481	H48	0.555600	0.811900	0.391100
H491	H49	0.746700	0.651100	0.541100
H501	H50	0.845500	0.093900	0.217900
H511	H51	0.221400	0.794900	0.205100
H521	H52	0.807000	0.439200	0.804000
H531	H53	0.088300	0.111700	0.888300
H541	H54	0.482600	0.505400	0.832000
H551	H55	0.160800	0.312000	0.945000
H561	H56	0.456200	0.063700	0.682500
H571	H57	0.444400	0.391100	0.811900
H581	H58	0.487900	0.677300	0.941700
H591	H59	0.031600	0.150800	0.034400
H601	H60	0.778600	0.205100	0.794900
H611	H61	0.193000	0.804000	0.439200
H621	H62	0.148800	0.738600	0.261400
H631	H63	0.444400	0.188100	0.608900
H641	H64	0.101600	0.433200	0.279400
H651	H65	0.242400	0.342600	0.249800
H661	H66	0.193000	0.560800	0.196000
H671	H67	0.145100	0.172800	0.827200
H681	H68	0.666000	0.171100	0.465700
H691	H69	0.898400	0.279400	0.433200
H701	H70	0.352900	0.048000	0.178200
H711	H71	0.775800	0.065700	0.317700
H721	H72	0.206000	0.344600	0.560600
C11	C1	0.098400	0.128980	0.062620
C21	C2	0.233500	0.387200	0.239000
C31	C3	0.431900	0.208500	0.508900
C41	C4	0.559600	0.679650	0.965150
C51	C5	0.355400	0.817630	0.819970
C61	C6	0.766500	0.612800	0.761000
C71	C7	0.286200	0.806800	0.541400
C81	C8	0.355400	0.180030	0.182370
C91	C9	0.233200	0.033190	0.686210
C101	C10	0.885100	0.112800	0.887200
C111	C11	0.735900	0.845760	0.304840
C121	C12	0.201800	0.791520	0.482880
C131	C13	0.440400	0.320350	0.034850
C141	C14	0.706500	0.487000	0.313800
C151	C15	0.698200	0.687050	0.073150
C161	C16	0.854300	0.196900	0.803100
C171	C17	0.594300	0.778700	0.421700
C181	C18	0.271400	0.317290	0.039110
C191	C19	0.213100	0.032510	0.109290
C201	C20	0.288600	0.852040	0.929760
C211	C21	0.271100	0.857210	0.861590
C221	C22	0.145700	0.803100	0.196900
C231	C23	0.926200	0.151200	0.848800
C241	C24	0.851800	0.257200	0.441600
C251	C25	0.405700	0.421700	0.778700
C261	C26	0.288600	0.070240	0.147960
C271	C27	0.798200	0.208480	0.517120
C281	C28	0.851800	0.558400	0.742800
C291	C29	0.828700	0.829720	0.901280
C301	C30	0.431900	0.491100	0.791500
C311	C31	0.568100	0.791500	0.491100
C321	C32	0.828700	0.098720	0.170280
C331	C33	0.728600	0.682710	0.960890
C341	C34	0.590100	0.398800	0.251400
C351	C35	0.867100	0.242400	0.507400
C361	C36	0.786900	0.109290	0.032510
C371	C37	0.407600	0.038600	0.683000
C381	C38	0.132900	0.507400	0.242400
C391	C39	0.271300	0.447800	0.686000
C401	C40	0.440400	0.965150	0.679650
C411	C41	0.728900	0.861590	0.857210
C421	C42	0.264100	0.304840	0.845760
C431	C43	0.376600	0.532400	0.740200
C441	C44	0.568100	0.508900	0.208500
C451	C45	0.900300	0.230600	0.769400
C461	C46	0.301800	0.073150	0.687050
C471	C47	0.405700	0.221300	0.578300
C481	C48	0.590100	0.748600	0.601200
C491	C49	0.099700	0.769400	0.230600
C501	C50	0.293500	0.513000	0.686200
C511	C51	0.735900	0.695160	0.154240
C521	C52	0.041600	0.737700	0.430100
C531	C53	0.286200	0.458600	0.193200
C541	C54	0.698200	0.926850	0.312950
C551	C55	0.766500	0.239000	0.387200
C561	C56	0.929900	0.820800	0.179200
C571	C57	0.592400	0.961400	0.317000
C581	C58	0.728600	0.039110	0.317290
C591	C59	0.409900	0.251400	0.398800
C601	C60	0.233500	0.761000	0.612800
C611	C61	0.623400	0.740200	0.532400
C621	C62	0.644600	0.819970	0.817630
C631	C63	0.407600	0.317000	0.961400
C641	C64	0.201800	0.517120	0.208480
C651	C65	0.766800	0.686210	0.033190
C661	C66	0.728700	0.686000	0.447800
C671	C67	0.171300	0.901280	0.829720
C681	C68	0.594300	0.578300	0.221300
C691	C69	0.098400	0.937380	0.871020
C701	C70	0.070100	0.179200	0.820800
C711	C71	0.958400	0.430100	0.737700
C721	C72	0.786900	0.967490	0.890710
C731	C73	0.963200	0.858000	0.142000
C741	C74	0.901600	0.062620	0.128980
C751	C75	0.644600	0.182370	0.180030
C761	C76	0.114900	0.887200	0.112800
C771	C77	0.293500	0.313800	0.487000
C781	C78	0.036800	0.142000	0.858000
C791	C79	0.901600	0.871020	0.937380
C801	C80	0.592400	0.683000	0.038600
C811	C81	0.766800	0.966810	0.313790
C821	C82	0.041600	0.569900	0.262300
C831	C83	0.711400	0.929760	0.852040
C841	C84	0.271400	0.960890	0.682710
C851	C85	0.271100	0.138410	0.142790
C861	C86	0.271300	0.314000	0.552200
C871	C87	0.867100	0.492600	0.757600
C881	C88	0.728700	0.552200	0.314000
C891	C89	0.301800	0.312950	0.926850
C901	C90	0.623400	0.467600	0.259800
C911	C91	0.798200	0.482880	0.791520
C921	C92	0.233200	0.313790	0.966810
C931	C93	0.728900	0.142790	0.138410
C941	C94	0.559600	0.034850	0.320350
C951	C95	0.711400	0.147960	0.070240
C961	C96	0.073800	0.848800	0.151200
C971	C97	0.213100	0.890710	0.967490
C981	C98	0.376600	0.259800	0.467600
C991	C99	0.148200	0.742800	0.558400
C1001	C100	0.958400	0.262300	0.569900
C1011	C101	0.713800	0.193200	0.458600
C1021	C102	0.409900	0.601200	0.748600
C1031	C103	0.171300	0.170280	0.098720
C1041	C104	0.706500	0.686200	0.513000
C1051	C105	0.132900	0.757600	0.492600
C1061	C106	0.148200	0.441600	0.257200
C1071	C107	0.264100	0.154240	0.695160
C1081	C108	0.713800	0.541400	0.806800
N11	N1	0.999100	0.776690	0.223310
N21	N2	0.669200	0.600200	0.276800
N31	N3	0.625400	0.679710	0.927810
N41	N4	0.303800	0.394320	0.207120
N51	N5	0.669200	0.723200	0.399800
N61	N6	0.625400	0.072190	0.320290
N71	N7	0.330800	0.276800	0.600200
N81	N8	0.303800	0.792880	0.605680
N91	N9	0.000900	0.223310	0.776690
N101	N10	0.374600	0.927810	0.679710
N111	N11	0.330800	0.399800	0.723200
N121	N12	0.116700	0.934640	0.938880
N131	N13	0.883300	0.938880	0.934640
N141	N14	0.696200	0.605680	0.792880
N151	N15	0.116700	0.061120	0.065360
N161	N16	0.696200	0.207120	0.394320
N171	N17	0.883300	0.065360	0.061120
N181	N18	0.374600	0.320290	0.072190
O11	O1	0.336000	0.833620	0.758740
O21	O2	0.955900	0.072010	0.927990
O31	O3	0.500000	0.708560	0.708560
O41	O4	0.528700	0.799990	0.619610
O51	O5	0.528700	0.380390	0.200010
O61	O6	0.624600	0.692730	0.629070
O71	O7	0.831100	0.820990	0.298370
O81	O8	0.671300	0.693960	0.186460
O91	O9	0.956200	0.371720	0.744500
O101	O10	0.956200	0.255500	0.628280
O111	O11	0.624600	0.370930	0.307270
O121	O12	0.043800	0.744500	0.371720
O131	O13	0.328700	0.306040	0.813540
O141	O14	0.375400	0.629070	0.692730
O151	O15	0.664000	0.758740	0.833620
O161	O16	0.500000	0.291440	0.291440
O171	O17	0.436300	0.151400	0.226040
O181	O18	0.336000	0.241260	0.166380
O191	O19	0.025500	0.285900	0.555500
O201	O20	0.168900	0.179010	0.701630
O211	O21	0.044100	0.927990	0.072010
O221	O22	0.563700	0.848600	0.773960
O231	O23	0.025500	0.444500	0.714100
O241	O24	0.831100	0.701630	0.179010
O251	O25	0.974500	0.555500	0.285900
O261	O26	0.784600	0.122970	0.877030
O271	O27	0.436300	0.773960	0.848600
O281	O28	0.471300	0.619610	0.799990
O291	O29	0.664000	0.166380	0.241260
O301	O30	0.563700	0.226040	0.151400
O311	O31	0.168900	0.298370	0.820990
O321	O32	0.043800	0.628280	0.255500
O331	O33	0.471300	0.200010	0.380390
O341	O34	0.328700	0.186460	0.693960
O351	O35	0.671300	0.813540	0.306040
O361	O36	0.974500	0.714100	0.444500
O371	O37	0.375400	0.307270	0.370930
O381	O38	0.215400	0.877030	0.122970
