data_YOFXIC_clean_PM
_symmetry_space_group_name_H-M	'P1'
_cell_length_a	35.997800
_cell_length_b	35.997800
_cell_length_c	9.908100
_cell_angle_alpha	90.000000
_cell_angle_beta	90.000000
_cell_angle_gamma	90.000000
_symmetry_Int_Tables_number 1

loop_
_symmetry_equiv_pos_as_xyz
'x,y,z'

loop_
_atom_site_label
_atom_site_type_symbol
_atom_site_fract_x
_atom_site_fract_y
_atom_site_fract_z
N11	N1	0.052690	0.037640	0.046400
N21	N2	0.054890	0.048720	0.179600
C11	C1	0.080550	0.054720	0.989200
H11	H1	0.086100	0.052200	0.898000
C21	C2	0.083660	0.071090	0.191800
H21	H2	0.091200	0.081800	0.272700
N31	N3	0.100640	0.076470	0.073500
N41	N4	0.973140	0.037450	0.113100
N51	N5	0.987150	0.050310	0.231600
C31	C3	0.941500	0.054190	0.098500
H31	H3	0.926000	0.050400	0.024800
C41	C4	0.962720	0.074040	0.280200
H41	H4	0.965600	0.086900	0.361100
N61	N6	0.933300	0.077480	0.199500
N71	N7	0.014120	0.973650	0.178000
N81	N8	0.024210	0.994270	0.288200
C51	C5	0.016700	0.939380	0.221100
H51	H5	0.011000	0.919100	0.166800
C61	C6	0.032590	0.970690	0.387600
H61	H6	0.040500	0.977800	0.473100
N91	N9	0.028070	0.935640	0.348600
B11	B1	0.025500	0.036650	0.283700
H71	H7	0.031000	0.047000	0.373000
Mn11	Mn1	0.136310	0.129100	0.055500
N101	N10	0.127220	0.132640	0.858900
C71	C7	0.096000	0.139700	0.804900
H81	H8	0.094700	0.139000	0.711200
C81	C8	0.062700	0.148800	0.876700
C91	C9	0.029000	0.150500	0.802200
H91	H9	0.028700	0.146800	0.709300
C101	C10	0.996500	0.157800	0.872000
H101	H10	0.974200	0.158500	0.824700
C111	C11	0.995800	0.164000	0.008000
H111	H11	0.973400	0.169300	0.051000
C121	C12	0.028100	0.162600	0.079700
H121	H12	0.027500	0.166600	0.172400
C131	C13	0.061800	0.155200	0.016700
O11	O1	0.092710	0.155670	0.092300
N111	N11	0.180450	0.100640	0.993900
C141	C14	0.207090	0.089300	0.070200
H131	H13	0.226400	0.076600	0.028500
C151	C15	0.209800	0.094300	0.213800
C161	C16	0.242600	0.084600	0.277500
H141	H14	0.261300	0.073100	0.227900
C171	C17	0.248200	0.091500	0.412800
H151	H15	0.270200	0.084600	0.455200
C181	C18	0.220500	0.108800	0.483000
H161	H16	0.223900	0.113800	0.574300
C191	C19	0.188400	0.118800	0.423400
H171	H17	0.170200	0.130500	0.474700
C201	C20	0.181500	0.112000	0.287300
O21	O2	0.149800	0.123740	0.236700
C211	C21	0.160300	0.123300	0.780200
H181	H18	0.176400	0.144800	0.773000
H191	H19	0.153200	0.115700	0.689900
C221	C22	0.180500	0.092500	0.848400
H201	H20	0.168100	0.069000	0.831100
H211	H21	0.205700	0.090900	0.815000
N121	N12	0.552690	0.537640	0.546400
N131	N13	0.554890	0.548720	0.679600
C231	C23	0.580550	0.554720	0.489200
H221	H22	0.586100	0.552200	0.398000
C241	C24	0.583660	0.571090	0.691800
H231	H23	0.591200	0.581800	0.772700
N141	N14	0.600640	0.576470	0.573500
N151	N15	0.473140	0.537450	0.613100
N161	N16	0.487150	0.550310	0.731600
C251	C25	0.441500	0.554190	0.598500
H241	H24	0.426000	0.550400	0.524800
C261	C26	0.462720	0.574040	0.780200
H251	H25	0.465600	0.586900	0.861100
N171	N17	0.433300	0.577480	0.699500
N181	N18	0.514120	0.473650	0.678000
N191	N19	0.524210	0.494270	0.788200
C271	C27	0.516700	0.439380	0.721100
H261	H26	0.511000	0.419100	0.666800
C281	C28	0.532590	0.470690	0.887600
H271	H27	0.540500	0.477800	0.973100
N201	N20	0.528070	0.435640	0.848600
B21	B2	0.525500	0.536650	0.783700
H281	H28	0.531000	0.547000	0.873000
Mn21	Mn2	0.636310	0.629100	0.555500
N211	N21	0.627220	0.632640	0.358900
C291	C29	0.596000	0.639700	0.304900
H291	H29	0.594700	0.639000	0.211200
C301	C30	0.562700	0.648800	0.376700
C311	C31	0.529000	0.650500	0.302200
H301	H30	0.528700	0.646800	0.209300
C321	C32	0.496500	0.657800	0.372000
H311	H31	0.474200	0.658500	0.324700
C331	C33	0.495800	0.664000	0.508000
H321	H32	0.473400	0.669300	0.551000
C341	C34	0.528100	0.662600	0.579700
H331	H33	0.527500	0.666600	0.672400
C351	C35	0.561800	0.655200	0.516700
O31	O3	0.592710	0.655670	0.592300
N221	N22	0.680450	0.600640	0.493900
C361	C36	0.707090	0.589300	0.570200
H341	H34	0.726400	0.576600	0.528500
C371	C37	0.709800	0.594300	0.713800
C381	C38	0.742600	0.584600	0.777500
H351	H35	0.761300	0.573100	0.727900
C391	C39	0.748200	0.591500	0.912800
H361	H36	0.770200	0.584600	0.955200
C401	C40	0.720500	0.608800	0.983000
H371	H37	0.723900	0.613800	0.074300
C411	C41	0.688400	0.618800	0.923400
H381	H38	0.670200	0.630500	0.974700
C421	C42	0.681500	0.612000	0.787300
O41	O4	0.649800	0.623740	0.736700
C431	C43	0.660300	0.623300	0.280200
H391	H39	0.676400	0.644800	0.273000
H401	H40	0.653200	0.615700	0.189900
C441	C44	0.680500	0.592500	0.348400
H411	H41	0.668100	0.569000	0.331100
H421	H42	0.705700	0.590900	0.315000
N231	N23	0.447310	0.962360	0.546400
N241	N24	0.445110	0.951280	0.679600
C451	C45	0.419450	0.945280	0.489200
H431	H43	0.413900	0.947800	0.398000
C461	C46	0.416340	0.928910	0.691800
H441	H44	0.408800	0.918200	0.772700
N251	N25	0.399360	0.923530	0.573500
N261	N26	0.526860	0.962550	0.613100
N271	N27	0.512850	0.949690	0.731600
C471	C47	0.558500	0.945810	0.598500
H451	H45	0.574000	0.949600	0.524800
C481	C48	0.537280	0.925960	0.780200
H461	H46	0.534400	0.913100	0.861100
N281	N28	0.566700	0.922520	0.699500
N291	N29	0.485880	0.026350	0.678000
N301	N30	0.475790	0.005730	0.788200
C491	C49	0.483300	0.060620	0.721100
H471	H47	0.489000	0.080900	0.666800
C501	C50	0.467410	0.029310	0.887600
H481	H48	0.459500	0.022200	0.973100
N311	N31	0.471930	0.064360	0.848600
B31	B3	0.474500	0.963350	0.783700
H491	H49	0.469000	0.953000	0.873000
Mn31	Mn3	0.363690	0.870900	0.555500
N321	N32	0.372780	0.867360	0.358900
C511	C51	0.404000	0.860300	0.304900
H501	H50	0.405300	0.861000	0.211200
C521	C52	0.437300	0.851200	0.376700
C531	C53	0.471000	0.849500	0.302200
H511	H51	0.471300	0.853200	0.209300
C541	C54	0.503500	0.842200	0.372000
H521	H52	0.525800	0.841500	0.324700
C551	C55	0.504200	0.836000	0.508000
H531	H53	0.526600	0.830700	0.551000
C561	C56	0.471900	0.837400	0.579700
H541	H54	0.472500	0.833400	0.672400
C571	C57	0.438200	0.844800	0.516700
O51	O5	0.407290	0.844330	0.592300
N331	N33	0.319550	0.899360	0.493900
C581	C58	0.292910	0.910700	0.570200
H551	H55	0.273600	0.923400	0.528500
C591	C59	0.290200	0.905700	0.713800
C601	C60	0.257400	0.915400	0.777500
H561	H56	0.238700	0.926900	0.727900
C611	C61	0.251800	0.908500	0.912800
H571	H57	0.229800	0.915400	0.955200
C621	C62	0.279500	0.891200	0.983000
H581	H58	0.276100	0.886200	0.074300
C631	C63	0.311600	0.881200	0.923400
H591	H59	0.329800	0.869500	0.974700
C641	C64	0.318500	0.888000	0.787300
O61	O6	0.350200	0.876260	0.736700
C651	C65	0.339700	0.876700	0.280200
H601	H60	0.323600	0.855200	0.273000
H611	H61	0.346800	0.884300	0.189900
C661	C66	0.319500	0.907500	0.348400
H621	H62	0.331900	0.931000	0.331100
H631	H63	0.294300	0.909100	0.315000
N341	N34	0.947310	0.462360	0.046400
N351	N35	0.945110	0.451280	0.179600
C671	C67	0.919450	0.445280	0.989200
H641	H64	0.913900	0.447800	0.898000
C681	C68	0.916340	0.428910	0.191800
H651	H65	0.908800	0.418200	0.272700
N361	N36	0.899360	0.423530	0.073500
N371	N37	0.026860	0.462550	0.113100
N381	N38	0.012850	0.449690	0.231600
C691	C69	0.058500	0.445810	0.098500
H661	H66	0.074000	0.449600	0.024800
C701	C70	0.037280	0.425960	0.280200
H671	H67	0.034400	0.413100	0.361100
N391	N39	0.066700	0.422520	0.199500
N401	N40	0.985880	0.526350	0.178000
N411	N41	0.975790	0.505730	0.288200
C711	C71	0.983300	0.560620	0.221100
H681	H68	0.989000	0.580900	0.166800
C721	C72	0.967410	0.529310	0.387600
H691	H69	0.959500	0.522200	0.473100
N421	N42	0.971930	0.564360	0.348600
B41	B4	0.974500	0.463350	0.283700
H701	H70	0.969000	0.453000	0.373000
Mn41	Mn4	0.863690	0.370900	0.055500
N431	N43	0.872780	0.367360	0.858900
C731	C73	0.904000	0.360300	0.804900
H711	H71	0.905300	0.361000	0.711200
C741	C74	0.937300	0.351200	0.876700
C751	C75	0.971000	0.349500	0.802200
H721	H72	0.971300	0.353200	0.709300
C761	C76	0.003500	0.342200	0.872000
H731	H73	0.025800	0.341500	0.824700
C771	C77	0.004200	0.336000	0.008000
H741	H74	0.026600	0.330700	0.051000
C781	C78	0.971900	0.337400	0.079700
H751	H75	0.972500	0.333400	0.172400
C791	C79	0.938200	0.344800	0.016700
O71	O7	0.907290	0.344330	0.092300
N441	N44	0.819550	0.399360	0.993900
C801	C80	0.792910	0.410700	0.070200
H761	H76	0.773600	0.423400	0.028500
C811	C81	0.790200	0.405700	0.213800
C821	C82	0.757400	0.415400	0.277500
H771	H77	0.738700	0.426900	0.227900
C831	C83	0.751800	0.408500	0.412800
H781	H78	0.729800	0.415400	0.455200
C841	C84	0.779500	0.391200	0.483000
H791	H79	0.776100	0.386200	0.574300
C851	C85	0.811600	0.381200	0.423400
H801	H80	0.829800	0.369500	0.474700
C861	C86	0.818500	0.388000	0.287300
O81	O8	0.850200	0.376260	0.236700
C871	C87	0.839700	0.376700	0.780200
H811	H81	0.823600	0.355200	0.773000
H821	H82	0.846800	0.384300	0.689900
C881	C88	0.819500	0.407500	0.848400
H831	H83	0.831900	0.431000	0.831100
H841	H84	0.794300	0.409100	0.815000
N451	N45	0.712360	0.302690	0.296400
N461	N46	0.701280	0.304890	0.429600
C891	C89	0.695280	0.330550	0.239200
H851	H85	0.697800	0.336100	0.148000
C901	C90	0.678910	0.333660	0.441800
H861	H86	0.668200	0.341200	0.522700
N471	N47	0.673530	0.350640	0.323500
N481	N48	0.712550	0.223140	0.363100
N491	N49	0.699690	0.237150	0.481600
C911	C91	0.695810	0.191500	0.348500
H871	H87	0.699600	0.176000	0.274800
C921	C92	0.675960	0.212720	0.530200
H881	H88	0.663100	0.215600	0.611100
N501	N50	0.672520	0.183300	0.449500
N511	N51	0.776350	0.264120	0.428000
N521	N52	0.755730	0.274210	0.538200
C931	C93	0.810620	0.266700	0.471100
H891	H89	0.830900	0.261000	0.416800
C941	C94	0.779310	0.282590	0.637600
H901	H90	0.772200	0.290500	0.723100
N531	N53	0.814360	0.278070	0.598600
B51	B5	0.713350	0.275500	0.533700
H911	H91	0.703000	0.281000	0.623000
Mn51	Mn5	0.620900	0.386310	0.305500
N541	N54	0.617360	0.377220	0.108900
C951	C95	0.610300	0.346000	0.054900
H921	H92	0.611000	0.344700	0.961200
C961	C96	0.601200	0.312700	0.126700
C971	C97	0.599500	0.279000	0.052200
H931	H93	0.603200	0.278700	0.959300
C981	C98	0.592200	0.246500	0.122000
H941	H94	0.591500	0.224200	0.074700
C991	C99	0.586000	0.245800	0.258000
H951	H95	0.580700	0.223400	0.301000
C1001	C100	0.587400	0.278100	0.329700
H961	H96	0.583400	0.277500	0.422400
C1011	C101	0.594800	0.311800	0.266700
O91	O9	0.594330	0.342710	0.342300
N551	N55	0.649360	0.430450	0.243900
C1021	C102	0.660700	0.457090	0.320200
H971	H97	0.673400	0.476400	0.278500
C1031	C103	0.655700	0.459800	0.463800
C1041	C104	0.665400	0.492600	0.527500
H981	H98	0.676900	0.511300	0.477900
C1051	C105	0.658500	0.498200	0.662800
H991	H99	0.665400	0.520200	0.705200
C1061	C106	0.641200	0.470500	0.733000
H1001	H100	0.636200	0.473900	0.824300
C1071	C107	0.631200	0.438400	0.673400
H1011	H101	0.619500	0.420200	0.724700
C1081	C108	0.638000	0.431500	0.537300
O101	O10	0.626260	0.399800	0.486700
C1091	C109	0.626700	0.410300	0.030200
H1021	H102	0.605200	0.426400	0.023000
H1031	H103	0.634300	0.403200	0.939900
C1101	C110	0.657500	0.430500	0.098400
H1041	H104	0.681000	0.418100	0.081100
H1051	H105	0.659100	0.455700	0.065000
N561	N56	0.212360	0.802690	0.796400
N571	N57	0.201280	0.804890	0.929600
C1111	C111	0.195280	0.830550	0.739200
H1061	H106	0.197800	0.836100	0.648000
C1121	C112	0.178910	0.833660	0.941800
H1071	H107	0.168200	0.841200	0.022700
N581	N58	0.173530	0.850640	0.823500
N591	N59	0.212550	0.723140	0.863100
N601	N60	0.199690	0.737150	0.981600
C1131	C113	0.195810	0.691500	0.848500
H1081	H108	0.199600	0.676000	0.774800
C1141	C114	0.175960	0.712720	0.030200
H1091	H109	0.163100	0.715600	0.111100
N611	N61	0.172520	0.683300	0.949500
N621	N62	0.276350	0.764120	0.928000
N631	N63	0.255730	0.774210	0.038200
C1151	C115	0.310620	0.766700	0.971100
H1101	H110	0.330900	0.761000	0.916800
C1161	C116	0.279310	0.782590	0.137600
H1111	H111	0.272200	0.790500	0.223100
N641	N64	0.314360	0.778070	0.098600
B61	B6	0.213350	0.775500	0.033700
H1121	H112	0.203000	0.781000	0.123000
Mn61	Mn6	0.120900	0.886310	0.805500
N651	N65	0.117360	0.877220	0.608900
C1171	C117	0.110300	0.846000	0.554900
H1131	H113	0.111000	0.844700	0.461200
C1181	C118	0.101200	0.812700	0.626700
C1191	C119	0.099500	0.779000	0.552200
H1141	H114	0.103200	0.778700	0.459300
C1201	C120	0.092200	0.746500	0.622000
H1151	H115	0.091500	0.724200	0.574700
C1211	C121	0.086000	0.745800	0.758000
H1161	H116	0.080700	0.723400	0.801000
C1221	C122	0.087400	0.778100	0.829700
H1171	H117	0.083400	0.777500	0.922400
C1231	C123	0.094800	0.811800	0.766700
O111	O11	0.094330	0.842710	0.842300
N661	N66	0.149360	0.930450	0.743900
C1241	C124	0.160700	0.957090	0.820200
H1181	H118	0.173400	0.976400	0.778500
C1251	C125	0.155700	0.959800	0.963800
C1261	C126	0.165400	0.992600	0.027500
H1191	H119	0.176900	0.011300	0.977900
C1271	C127	0.158500	0.998200	0.162800
H1201	H120	0.165400	0.020200	0.205200
C1281	C128	0.141200	0.970500	0.233000
H1211	H121	0.136200	0.973900	0.324300
C1291	C129	0.131200	0.938400	0.173400
H1221	H122	0.119500	0.920200	0.224700
C1301	C130	0.138000	0.931500	0.037300
O121	O12	0.126260	0.899800	0.986700
C1311	C131	0.126700	0.910300	0.530200
H1231	H123	0.105200	0.926400	0.523000
H1241	H124	0.134300	0.903200	0.439900
C1321	C132	0.157500	0.930500	0.598400
H1251	H125	0.181000	0.918100	0.581100
H1261	H126	0.159100	0.955700	0.565000
N671	N67	0.787640	0.697310	0.796400
N681	N68	0.798720	0.695110	0.929600
C1331	C133	0.804720	0.669450	0.739200
H1271	H127	0.802200	0.663900	0.648000
C1341	C134	0.821090	0.666340	0.941800
H1281	H128	0.831800	0.658800	0.022700
N691	N69	0.826470	0.649360	0.823500
N701	N70	0.787450	0.776860	0.863100
N711	N71	0.800310	0.762850	0.981600
C1351	C135	0.804190	0.808500	0.848500
H1291	H129	0.800400	0.824000	0.774800
C1361	C136	0.824040	0.787280	0.030200
H1301	H130	0.836900	0.784400	0.111100
N721	N72	0.827480	0.816700	0.949500
N731	N73	0.723650	0.735880	0.928000
N741	N74	0.744270	0.725790	0.038200
C1371	C137	0.689380	0.733300	0.971100
H1311	H131	0.669100	0.739000	0.916800
C1381	C138	0.720690	0.717410	0.137600
H1321	H132	0.727800	0.709500	0.223100
N751	N75	0.685640	0.721930	0.098600
B71	B7	0.786650	0.724500	0.033700
H1331	H133	0.797000	0.719000	0.123000
Mn71	Mn7	0.879100	0.613690	0.805500
N761	N76	0.882640	0.622780	0.608900
C1391	C139	0.889700	0.654000	0.554900
H1341	H134	0.889000	0.655300	0.461200
C1401	C140	0.898800	0.687300	0.626700
C1411	C141	0.900500	0.721000	0.552200
H1351	H135	0.896800	0.721300	0.459300
C1421	C142	0.907800	0.753500	0.622000
H1361	H136	0.908500	0.775800	0.574700
C1431	C143	0.914000	0.754200	0.758000
H1371	H137	0.919300	0.776600	0.801000
C1441	C144	0.912600	0.721900	0.829700
H1381	H138	0.916600	0.722500	0.922400
C1451	C145	0.905200	0.688200	0.766700
O131	O13	0.905670	0.657290	0.842300
N771	N77	0.850640	0.569550	0.743900
C1461	C146	0.839300	0.542910	0.820200
H1391	H139	0.826600	0.523600	0.778500
C1471	C147	0.844300	0.540200	0.963800
C1481	C148	0.834600	0.507400	0.027500
H1401	H140	0.823100	0.488700	0.977900
C1491	C149	0.841500	0.501800	0.162800
H1411	H141	0.834600	0.479800	0.205200
C1501	C150	0.858800	0.529500	0.233000
H1421	H142	0.863800	0.526100	0.324300
C1511	C151	0.868800	0.561600	0.173400
H1431	H143	0.880500	0.579800	0.224700
C1521	C152	0.862000	0.568500	0.037300
O141	O14	0.873740	0.600200	0.986700
C1531	C153	0.873300	0.589700	0.530200
H1441	H144	0.894800	0.573600	0.523000
H1451	H145	0.865700	0.596800	0.439900
C1541	C154	0.842500	0.569500	0.598400
H1461	H146	0.819000	0.581900	0.581100
H1471	H147	0.840900	0.544300	0.565000
N781	N78	0.287640	0.197310	0.296400
N791	N79	0.298720	0.195110	0.429600
C1551	C155	0.304720	0.169450	0.239200
H1481	H148	0.302200	0.163900	0.148000
C1561	C156	0.321090	0.166340	0.441800
H1491	H149	0.331800	0.158800	0.522700
N801	N80	0.326470	0.149360	0.323500
N811	N81	0.287450	0.276860	0.363100
N821	N82	0.300310	0.262850	0.481600
C1571	C157	0.304190	0.308500	0.348500
H1501	H150	0.300400	0.324000	0.274800
C1581	C158	0.324040	0.287280	0.530200
H1511	H151	0.336900	0.284400	0.611100
N831	N83	0.327480	0.316700	0.449500
N841	N84	0.223650	0.235880	0.428000
N851	N85	0.244270	0.225790	0.538200
C1591	C159	0.189380	0.233300	0.471100
H1521	H152	0.169100	0.239000	0.416800
C1601	C160	0.220690	0.217410	0.637600
H1531	H153	0.227800	0.209500	0.723100
N861	N86	0.185640	0.221930	0.598600
B81	B8	0.286650	0.224500	0.533700
H1541	H154	0.297000	0.219000	0.623000
Mn81	Mn8	0.379100	0.113690	0.305500
N871	N87	0.382640	0.122780	0.108900
C1611	C161	0.389700	0.154000	0.054900
H1551	H155	0.389000	0.155300	0.961200
C1621	C162	0.398800	0.187300	0.126700
C1631	C163	0.400500	0.221000	0.052200
H1561	H156	0.396800	0.221300	0.959300
C1641	C164	0.407800	0.253500	0.122000
H1571	H157	0.408500	0.275800	0.074700
C1651	C165	0.414000	0.254200	0.258000
H1581	H158	0.419300	0.276600	0.301000
C1661	C166	0.412600	0.221900	0.329700
H1591	H159	0.416600	0.222500	0.422400
C1671	C167	0.405200	0.188200	0.266700
O151	O15	0.405670	0.157290	0.342300
N881	N88	0.350640	0.069550	0.243900
C1681	C168	0.339300	0.042910	0.320200
H1601	H160	0.326600	0.023600	0.278500
C1691	C169	0.344300	0.040200	0.463800
C1701	C170	0.334600	0.007400	0.527500
H1611	H161	0.323100	0.988700	0.477900
C1711	C171	0.341500	0.001800	0.662800
H1621	H162	0.334600	0.979800	0.705200
C1721	C172	0.358800	0.029500	0.733000
H1631	H163	0.363800	0.026100	0.824300
C1731	C173	0.368800	0.061600	0.673400
H1641	H164	0.380500	0.079800	0.724700
C1741	C174	0.362000	0.068500	0.537300
O161	O16	0.373740	0.100200	0.486700
C1751	C175	0.373300	0.089700	0.030200
H1651	H165	0.394800	0.073600	0.023000
H1661	H166	0.365700	0.096800	0.939900
C1761	C176	0.342500	0.069500	0.098400
H1671	H167	0.319000	0.081900	0.081100
H1681	H168	0.340900	0.044300	0.065000
N891	N89	0.947310	0.962360	0.953600
N901	N90	0.945110	0.951280	0.820400
C1771	C177	0.919450	0.945280	0.010800
H1691	H169	0.913900	0.947800	0.102000
C1781	C178	0.916340	0.928910	0.808200
H1701	H170	0.908800	0.918200	0.727300
N911	N91	0.899360	0.923530	0.926500
N921	N92	0.026860	0.962550	0.886900
N931	N93	0.012850	0.949690	0.768400
C1791	C179	0.058500	0.945810	0.901500
H1711	H171	0.074000	0.949600	0.975200
C1801	C180	0.037280	0.925960	0.719800
H1721	H172	0.034400	0.913100	0.638900
N941	N94	0.066700	0.922520	0.800500
N951	N95	0.985880	0.026350	0.822000
N961	N96	0.975790	0.005730	0.711800
C1811	C181	0.983300	0.060620	0.778900
H1731	H173	0.989000	0.080900	0.833200
C1821	C182	0.967410	0.029310	0.612400
H1741	H174	0.959500	0.022200	0.526900
N971	N97	0.971930	0.064360	0.651400
B91	B9	0.974500	0.963350	0.716300
H1751	H175	0.969000	0.953000	0.627000
Mn91	Mn9	0.863690	0.870900	0.944500
N981	N98	0.872780	0.867360	0.141100
C1831	C183	0.904000	0.860300	0.195100
H1761	H176	0.905300	0.861000	0.288800
C1841	C184	0.937300	0.851200	0.123300
C1851	C185	0.971000	0.849500	0.197800
H1771	H177	0.971300	0.853200	0.290700
C1861	C186	0.003500	0.842200	0.128000
H1781	H178	0.025800	0.841500	0.175300
C1871	C187	0.004200	0.836000	0.992000
H1791	H179	0.026600	0.830700	0.949000
C1881	C188	0.971900	0.837400	0.920300
H1801	H180	0.972500	0.833400	0.827600
C1891	C189	0.938200	0.844800	0.983300
O171	O17	0.907290	0.844330	0.907700
N991	N99	0.819550	0.899360	0.006100
C1901	C190	0.792910	0.910700	0.929800
H1811	H181	0.773600	0.923400	0.971500
C1911	C191	0.790200	0.905700	0.786200
C1921	C192	0.757400	0.915400	0.722500
H1821	H182	0.738700	0.926900	0.772100
C1931	C193	0.751800	0.908500	0.587200
H1831	H183	0.729800	0.915400	0.544800
C1941	C194	0.779500	0.891200	0.517000
H1841	H184	0.776100	0.886200	0.425700
C1951	C195	0.811600	0.881200	0.576600
H1851	H185	0.829800	0.869500	0.525300
C1961	C196	0.818500	0.888000	0.712700
O181	O18	0.850200	0.876260	0.763300
C1971	C197	0.839700	0.876700	0.219800
H1861	H186	0.823600	0.855200	0.227000
H1871	H187	0.846800	0.884300	0.310100
C1981	C198	0.819500	0.907500	0.151600
H1881	H188	0.831900	0.931000	0.168900
H1891	H189	0.794300	0.909100	0.185000
N1001	N100	0.447310	0.462360	0.453600
N1011	N101	0.445110	0.451280	0.320400
C1991	C199	0.419450	0.445280	0.510800
H1901	H190	0.413900	0.447800	0.602000
C2001	C200	0.416340	0.428910	0.308200
H1911	H191	0.408800	0.418200	0.227300
N1021	N102	0.399360	0.423530	0.426500
N1031	N103	0.526860	0.462550	0.386900
N1041	N104	0.512850	0.449690	0.268400
C2011	C201	0.558500	0.445810	0.401500
H1921	H192	0.574000	0.449600	0.475200
C2021	C202	0.537280	0.425960	0.219800
H1931	H193	0.534400	0.413100	0.138900
N1051	N105	0.566700	0.422520	0.300500
N1061	N106	0.485880	0.526350	0.322000
N1071	N107	0.475790	0.505730	0.211800
C2031	C203	0.483300	0.560620	0.278900
H1941	H194	0.489000	0.580900	0.333200
C2041	C204	0.467410	0.529310	0.112400
H1951	H195	0.459500	0.522200	0.026900
N1081	N108	0.471930	0.564360	0.151400
B101	B10	0.474500	0.463350	0.216300
H1961	H196	0.469000	0.453000	0.127000
Mn101	Mn10	0.363690	0.370900	0.444500
N1091	N109	0.372780	0.367360	0.641100
C2051	C205	0.404000	0.360300	0.695100
H1971	H197	0.405300	0.361000	0.788800
C2061	C206	0.437300	0.351200	0.623300
C2071	C207	0.471000	0.349500	0.697800
H1981	H198	0.471300	0.353200	0.790700
C2081	C208	0.503500	0.342200	0.628000
H1991	H199	0.525800	0.341500	0.675300
C2091	C209	0.504200	0.336000	0.492000
H2001	H200	0.526600	0.330700	0.449000
C2101	C210	0.471900	0.337400	0.420300
H2011	H201	0.472500	0.333400	0.327600
C2111	C211	0.438200	0.344800	0.483300
O191	O19	0.407290	0.344330	0.407700
N1101	N110	0.319550	0.399360	0.506100
C2121	C212	0.292910	0.410700	0.429800
H2021	H202	0.273600	0.423400	0.471500
C2131	C213	0.290200	0.405700	0.286200
C2141	C214	0.257400	0.415400	0.222500
H2031	H203	0.238700	0.426900	0.272100
C2151	C215	0.251800	0.408500	0.087200
H2041	H204	0.229800	0.415400	0.044800
C2161	C216	0.279500	0.391200	0.017000
H2051	H205	0.276100	0.386200	0.925700
C2171	C217	0.311600	0.381200	0.076600
H2061	H206	0.329800	0.369500	0.025300
C2181	C218	0.318500	0.388000	0.212700
O201	O20	0.350200	0.376260	0.263300
C2191	C219	0.339700	0.376700	0.719800
H2071	H207	0.323600	0.355200	0.727000
H2081	H208	0.346800	0.384300	0.810100
C2201	C220	0.319500	0.407500	0.651600
H2091	H209	0.331900	0.431000	0.668900
H2101	H210	0.294300	0.409100	0.685000
N1111	N111	0.552690	0.037640	0.453600
N1121	N112	0.554890	0.048720	0.320400
C2211	C221	0.580550	0.054720	0.510800
H2111	H211	0.586100	0.052200	0.602000
C2221	C222	0.583660	0.071090	0.308200
H2121	H212	0.591200	0.081800	0.227300
N1131	N113	0.600640	0.076470	0.426500
N1141	N114	0.473140	0.037450	0.386900
N1151	N115	0.487150	0.050310	0.268400
C2231	C223	0.441500	0.054190	0.401500
H2131	H213	0.426000	0.050400	0.475200
C2241	C224	0.462720	0.074040	0.219800
H2141	H214	0.465600	0.086900	0.138900
N1161	N116	0.433300	0.077480	0.300500
N1171	N117	0.514120	0.973650	0.322000
N1181	N118	0.524210	0.994270	0.211800
C2251	C225	0.516700	0.939380	0.278900
H2151	H215	0.511000	0.919100	0.333200
C2261	C226	0.532590	0.970690	0.112400
H2161	H216	0.540500	0.977800	0.026900
N1191	N119	0.528070	0.935640	0.151400
B111	B11	0.525500	0.036650	0.216300
H2171	H217	0.531000	0.047000	0.127000
Mn111	Mn11	0.636310	0.129100	0.444500
N1201	N120	0.627220	0.132640	0.641100
C2271	C227	0.596000	0.139700	0.695100
H2181	H218	0.594700	0.139000	0.788800
C2281	C228	0.562700	0.148800	0.623300
C2291	C229	0.529000	0.150500	0.697800
H2191	H219	0.528700	0.146800	0.790700
C2301	C230	0.496500	0.157800	0.628000
H2201	H220	0.474200	0.158500	0.675300
C2311	C231	0.495800	0.164000	0.492000
H2211	H221	0.473400	0.169300	0.449000
C2321	C232	0.528100	0.162600	0.420300
H2221	H222	0.527500	0.166600	0.327600
C2331	C233	0.561800	0.155200	0.483300
O211	O21	0.592710	0.155670	0.407700
N1211	N121	0.680450	0.100640	0.506100
C2341	C234	0.707090	0.089300	0.429800
H2231	H223	0.726400	0.076600	0.471500
C2351	C235	0.709800	0.094300	0.286200
C2361	C236	0.742600	0.084600	0.222500
H2241	H224	0.761300	0.073100	0.272100
C2371	C237	0.748200	0.091500	0.087200
H2251	H225	0.770200	0.084600	0.044800
C2381	C238	0.720500	0.108800	0.017000
H2261	H226	0.723900	0.113800	0.925700
C2391	C239	0.688400	0.118800	0.076600
H2271	H227	0.670200	0.130500	0.025300
C2401	C240	0.681500	0.112000	0.212700
O221	O22	0.649800	0.123740	0.263300
C2411	C241	0.660300	0.123300	0.719800
H2281	H228	0.676400	0.144800	0.727000
H2291	H229	0.653200	0.115700	0.810100
C2421	C242	0.680500	0.092500	0.651600
H2301	H230	0.668100	0.069000	0.668900
H2311	H231	0.705700	0.090900	0.685000
N1221	N122	0.052690	0.537640	0.953600
N1231	N123	0.054890	0.548720	0.820400
C2431	C243	0.080550	0.554720	0.010800
H2321	H232	0.086100	0.552200	0.102000
C2441	C244	0.083660	0.571090	0.808200
H2331	H233	0.091200	0.581800	0.727300
N1241	N124	0.100640	0.576470	0.926500
N1251	N125	0.973140	0.537450	0.886900
N1261	N126	0.987150	0.550310	0.768400
C2451	C245	0.941500	0.554190	0.901500
H2341	H234	0.926000	0.550400	0.975200
C2461	C246	0.962720	0.574040	0.719800
H2351	H235	0.965600	0.586900	0.638900
N1271	N127	0.933300	0.577480	0.800500
N1281	N128	0.014120	0.473650	0.822000
N1291	N129	0.024210	0.494270	0.711800
C2471	C247	0.016700	0.439380	0.778900
H2361	H236	0.011000	0.419100	0.833200
C2481	C248	0.032590	0.470690	0.612400
H2371	H237	0.040500	0.477800	0.526900
N1301	N130	0.028070	0.435640	0.651400
B121	B12	0.025500	0.536650	0.716300
H2381	H238	0.031000	0.547000	0.627000
Mn121	Mn12	0.136310	0.629100	0.944500
N1311	N131	0.127220	0.632640	0.141100
C2491	C249	0.096000	0.639700	0.195100
H2391	H239	0.094700	0.639000	0.288800
C2501	C250	0.062700	0.648800	0.123300
C2511	C251	0.029000	0.650500	0.197800
H2401	H240	0.028700	0.646800	0.290700
C2521	C252	0.996500	0.657800	0.128000
H2411	H241	0.974200	0.658500	0.175300
C2531	C253	0.995800	0.664000	0.992000
H2421	H242	0.973400	0.669300	0.949000
C2541	C254	0.028100	0.662600	0.920300
H2431	H243	0.027500	0.666600	0.827600
C2551	C255	0.061800	0.655200	0.983300
O231	O23	0.092710	0.655670	0.907700
N1321	N132	0.180450	0.600640	0.006100
C2561	C256	0.207090	0.589300	0.929800
H2441	H244	0.226400	0.576600	0.971500
C2571	C257	0.209800	0.594300	0.786200
C2581	C258	0.242600	0.584600	0.722500
H2451	H245	0.261300	0.573100	0.772100
C2591	C259	0.248200	0.591500	0.587200
H2461	H246	0.270200	0.584600	0.544800
C2601	C260	0.220500	0.608800	0.517000
H2471	H247	0.223900	0.613800	0.425700
C2611	C261	0.188400	0.618800	0.576600
H2481	H248	0.170200	0.630500	0.525300
C2621	C262	0.181500	0.612000	0.712700
O241	O24	0.149800	0.623740	0.763300
C2631	C263	0.160300	0.623300	0.219800
H2491	H249	0.176400	0.644800	0.227000
H2501	H250	0.153200	0.615700	0.310100
C2641	C264	0.180500	0.592500	0.151600
H2511	H251	0.168100	0.569000	0.168900
H2521	H252	0.205700	0.590900	0.185000
N1331	N133	0.287640	0.697310	0.703600
N1341	N134	0.298720	0.695110	0.570400
C2651	C265	0.304720	0.669450	0.760800
H2531	H253	0.302200	0.663900	0.852000
C2661	C266	0.321090	0.666340	0.558200
H2541	H254	0.331800	0.658800	0.477300
N1351	N135	0.326470	0.649360	0.676500
N1361	N136	0.287450	0.776860	0.636900
N1371	N137	0.300310	0.762850	0.518400
C2671	C267	0.304190	0.808500	0.651500
H2551	H255	0.300400	0.824000	0.725200
C2681	C268	0.324040	0.787280	0.469800
H2561	H256	0.336900	0.784400	0.388900
N1381	N138	0.327480	0.816700	0.550500
N1391	N139	0.223650	0.735880	0.572000
N1401	N140	0.244270	0.725790	0.461800
C2691	C269	0.189380	0.733300	0.528900
H2571	H257	0.169100	0.739000	0.583200
C2701	C270	0.220690	0.717410	0.362400
H2581	H258	0.227800	0.709500	0.276900
N1411	N141	0.185640	0.721930	0.401400
B131	B13	0.286650	0.724500	0.466300
H2591	H259	0.297000	0.719000	0.377000
Mn131	Mn13	0.379100	0.613690	0.694500
N1421	N142	0.382640	0.622780	0.891100
C2711	C271	0.389700	0.654000	0.945100
H2601	H260	0.389000	0.655300	0.038800
C2721	C272	0.398800	0.687300	0.873300
C2731	C273	0.400500	0.721000	0.947800
H2611	H261	0.396800	0.721300	0.040700
C2741	C274	0.407800	0.753500	0.878000
H2621	H262	0.408500	0.775800	0.925300
C2751	C275	0.414000	0.754200	0.742000
H2631	H263	0.419300	0.776600	0.699000
C2761	C276	0.412600	0.721900	0.670300
H2641	H264	0.416600	0.722500	0.577600
C2771	C277	0.405200	0.688200	0.733300
O251	O25	0.405670	0.657290	0.657700
N1431	N143	0.350640	0.569550	0.756100
C2781	C278	0.339300	0.542910	0.679800
H2651	H265	0.326600	0.523600	0.721500
C2791	C279	0.344300	0.540200	0.536200
C2801	C280	0.334600	0.507400	0.472500
H2661	H266	0.323100	0.488700	0.522100
C2811	C281	0.341500	0.501800	0.337200
H2671	H267	0.334600	0.479800	0.294800
C2821	C282	0.358800	0.529500	0.267000
H2681	H268	0.363800	0.526100	0.175700
C2831	C283	0.368800	0.561600	0.326600
H2691	H269	0.380500	0.579800	0.275300
C2841	C284	0.362000	0.568500	0.462700
O261	O26	0.373740	0.600200	0.513300
C2851	C285	0.373300	0.589700	0.969800
H2701	H270	0.394800	0.573600	0.977000
H2711	H271	0.365700	0.596800	0.060100
C2861	C286	0.342500	0.569500	0.901600
H2721	H272	0.319000	0.581900	0.918900
H2731	H273	0.340900	0.544300	0.935000
N1441	N144	0.787640	0.197310	0.203600
N1451	N145	0.798720	0.195110	0.070400
C2871	C287	0.804720	0.169450	0.260800
H2741	H274	0.802200	0.163900	0.352000
C2881	C288	0.821090	0.166340	0.058200
H2751	H275	0.831800	0.158800	0.977300
N1461	N146	0.826470	0.149360	0.176500
N1471	N147	0.787450	0.276860	0.136900
N1481	N148	0.800310	0.262850	0.018400
C2891	C289	0.804190	0.308500	0.151500
H2761	H276	0.800400	0.324000	0.225200
C2901	C290	0.824040	0.287280	0.969800
H2771	H277	0.836900	0.284400	0.888900
N1491	N149	0.827480	0.316700	0.050500
N1501	N150	0.723650	0.235880	0.072000
N1511	N151	0.744270	0.225790	0.961800
C2911	C291	0.689380	0.233300	0.028900
H2781	H278	0.669100	0.239000	0.083200
C2921	C292	0.720690	0.217410	0.862400
H2791	H279	0.727800	0.209500	0.776900
N1521	N152	0.685640	0.221930	0.901400
B141	B14	0.786650	0.224500	0.966300
H2801	H280	0.797000	0.219000	0.877000
Mn141	Mn14	0.879100	0.113690	0.194500
N1531	N153	0.882640	0.122780	0.391100
C2931	C293	0.889700	0.154000	0.445100
H2811	H281	0.889000	0.155300	0.538800
C2941	C294	0.898800	0.187300	0.373300
C2951	C295	0.900500	0.221000	0.447800
H2821	H282	0.896800	0.221300	0.540700
C2961	C296	0.907800	0.253500	0.378000
H2831	H283	0.908500	0.275800	0.425300
C2971	C297	0.914000	0.254200	0.242000
H2841	H284	0.919300	0.276600	0.199000
C2981	C298	0.912600	0.221900	0.170300
H2851	H285	0.916600	0.222500	0.077600
C2991	C299	0.905200	0.188200	0.233300
O271	O27	0.905670	0.157290	0.157700
N1541	N154	0.850640	0.069550	0.256100
C3001	C300	0.839300	0.042910	0.179800
H2861	H286	0.826600	0.023600	0.221500
C3011	C301	0.844300	0.040200	0.036200
C3021	C302	0.834600	0.007400	0.972500
H2871	H287	0.823100	0.988700	0.022100
C3031	C303	0.841500	0.001800	0.837200
H2881	H288	0.834600	0.979800	0.794800
C3041	C304	0.858800	0.029500	0.767000
H2891	H289	0.863800	0.026100	0.675700
C3051	C305	0.868800	0.061600	0.826600
H2901	H290	0.880500	0.079800	0.775300
C3061	C306	0.862000	0.068500	0.962700
O281	O28	0.873740	0.100200	0.013300
C3071	C307	0.873300	0.089700	0.469800
H2911	H291	0.894800	0.073600	0.477000
H2921	H292	0.865700	0.096800	0.560100
C3081	C308	0.842500	0.069500	0.401600
H2931	H293	0.819000	0.081900	0.418900
H2941	H294	0.840900	0.044300	0.435000
N1551	N155	0.212360	0.302690	0.203600
N1561	N156	0.201280	0.304890	0.070400
C3091	C309	0.195280	0.330550	0.260800
H2951	H295	0.197800	0.336100	0.352000
C3101	C310	0.178910	0.333660	0.058200
H2961	H296	0.168200	0.341200	0.977300
N1571	N157	0.173530	0.350640	0.176500
N1581	N158	0.212550	0.223140	0.136900
N1591	N159	0.199690	0.237150	0.018400
C3111	C311	0.195810	0.191500	0.151500
H2971	H297	0.199600	0.176000	0.225200
C3121	C312	0.175960	0.212720	0.969800
H2981	H298	0.163100	0.215600	0.888900
N1601	N160	0.172520	0.183300	0.050500
N1611	N161	0.276350	0.264120	0.072000
N1621	N162	0.255730	0.274210	0.961800
C3131	C313	0.310620	0.266700	0.028900
H2991	H299	0.330900	0.261000	0.083200
C3141	C314	0.279310	0.282590	0.862400
H3001	H300	0.272200	0.290500	0.776900
N1631	N163	0.314360	0.278070	0.901400
B151	B15	0.213350	0.275500	0.966300
H3011	H301	0.203000	0.281000	0.877000
Mn151	Mn15	0.120900	0.386310	0.194500
N1641	N164	0.117360	0.377220	0.391100
C3151	C315	0.110300	0.346000	0.445100
H3021	H302	0.111000	0.344700	0.538800
C3161	C316	0.101200	0.312700	0.373300
C3171	C317	0.099500	0.279000	0.447800
H3031	H303	0.103200	0.278700	0.540700
C3181	C318	0.092200	0.246500	0.378000
H3041	H304	0.091500	0.224200	0.425300
C3191	C319	0.086000	0.245800	0.242000
H3051	H305	0.080700	0.223400	0.199000
C3201	C320	0.087400	0.278100	0.170300
H3061	H306	0.083400	0.277500	0.077600
C3211	C321	0.094800	0.311800	0.233300
O291	O29	0.094330	0.342710	0.157700
N1651	N165	0.149360	0.430450	0.256100
C3221	C322	0.160700	0.457090	0.179800
H3071	H307	0.173400	0.476400	0.221500
C3231	C323	0.155700	0.459800	0.036200
C3241	C324	0.165400	0.492600	0.972500
H3081	H308	0.176900	0.511300	0.022100
C3251	C325	0.158500	0.498200	0.837200
H3091	H309	0.165400	0.520200	0.794800
C3261	C326	0.141200	0.470500	0.767000
H3101	H310	0.136200	0.473900	0.675700
C3271	C327	0.131200	0.438400	0.826600
H3111	H311	0.119500	0.420200	0.775300
C3281	C328	0.138000	0.431500	0.962700
O301	O30	0.126260	0.399800	0.013300
C3291	C329	0.126700	0.410300	0.469800
H3121	H312	0.105200	0.426400	0.477000
H3131	H313	0.134300	0.403200	0.560100
C3301	C330	0.157500	0.430500	0.401600
H3141	H314	0.181000	0.418100	0.418900
H3151	H315	0.159100	0.455700	0.435000
N1661	N166	0.712360	0.802690	0.703600
N1671	N167	0.701280	0.804890	0.570400
C3311	C331	0.695280	0.830550	0.760800
H3161	H316	0.697800	0.836100	0.852000
C3321	C332	0.678910	0.833660	0.558200
H3171	H317	0.668200	0.841200	0.477300
N1681	N168	0.673530	0.850640	0.676500
N1691	N169	0.712550	0.723140	0.636900
N1701	N170	0.699690	0.737150	0.518400
C3331	C333	0.695810	0.691500	0.651500
H3181	H318	0.699600	0.676000	0.725200
C3341	C334	0.675960	0.712720	0.469800
H3191	H319	0.663100	0.715600	0.388900
N1711	N171	0.672520	0.683300	0.550500
N1721	N172	0.776350	0.764120	0.572000
N1731	N173	0.755730	0.774210	0.461800
C3351	C335	0.810620	0.766700	0.528900
H3201	H320	0.830900	0.761000	0.583200
C3361	C336	0.779310	0.782590	0.362400
H3211	H321	0.772200	0.790500	0.276900
N1741	N174	0.814360	0.778070	0.401400
B161	B16	0.713350	0.775500	0.466300
H3221	H322	0.703000	0.781000	0.377000
Mn161	Mn16	0.620900	0.886310	0.694500
N1751	N175	0.617360	0.877220	0.891100
C3371	C337	0.610300	0.846000	0.945100
H3231	H323	0.611000	0.844700	0.038800
C3381	C338	0.601200	0.812700	0.873300
C3391	C339	0.599500	0.779000	0.947800
H3241	H324	0.603200	0.778700	0.040700
C3401	C340	0.592200	0.746500	0.878000
H3251	H325	0.591500	0.724200	0.925300
C3411	C341	0.586000	0.745800	0.742000
H3261	H326	0.580700	0.723400	0.699000
C3421	C342	0.587400	0.778100	0.670300
H3271	H327	0.583400	0.777500	0.577600
C3431	C343	0.594800	0.811800	0.733300
O311	O31	0.594330	0.842710	0.657700
N1761	N176	0.649360	0.930450	0.756100
C3441	C344	0.660700	0.957090	0.679800
H3281	H328	0.673400	0.976400	0.721500
C3451	C345	0.655700	0.959800	0.536200
C3461	C346	0.665400	0.992600	0.472500
H3291	H329	0.676900	0.011300	0.522100
C3471	C347	0.658500	0.998200	0.337200
H3301	H330	0.665400	0.020200	0.294800
C3481	C348	0.641200	0.970500	0.267000
H3311	H331	0.636200	0.973900	0.175700
C3491	C349	0.631200	0.938400	0.326600
H3321	H332	0.619500	0.920200	0.275300
C3501	C350	0.638000	0.931500	0.462700
O321	O32	0.626260	0.899800	0.513300
C3511	C351	0.626700	0.910300	0.969800
H3331	H333	0.605200	0.926400	0.977000
H3341	H334	0.634300	0.903200	0.060100
C3521	C352	0.657500	0.930500	0.901600
H3351	H335	0.681000	0.918100	0.918900
H3361	H336	0.659100	0.955700	0.935000
Cu11	Cu1	0.000000	0.000000	0.000000
Cu21	Cu2	0.500000	0.500000	0.500000
Cu31	Cu3	0.500000	0.000000	0.500000
Cu41	Cu4	0.000000	0.500000	0.000000
Cu51	Cu5	0.750000	0.250000	0.250000
Cu61	Cu6	0.750000	0.750000	0.750000
Cu71	Cu7	0.250000	0.750000	0.750000
Cu81	Cu8	0.250000	0.250000	0.250000
