data_YOFXEY_clean_PM
_symmetry_space_group_name_H-M	'P1'
_cell_length_a	36.102000
_cell_length_b	36.102000
_cell_length_c	9.930000
_cell_angle_alpha	90.000000
_cell_angle_beta	90.000000
_cell_angle_gamma	90.000000
_symmetry_Int_Tables_number 1

loop_
_symmetry_equiv_pos_as_xyz
'x,y,z'

loop_
_atom_site_label
_atom_site_type_symbol
_atom_site_fract_x
_atom_site_fract_y
_atom_site_fract_z
N11	N1	0.947330	0.462180	0.056700
N21	N2	0.947210	0.450930	0.190900
C11	C1	0.918610	0.445250	0.003500
H11	H1	0.912000	0.447400	0.913300
C21	C2	0.918330	0.428750	0.209200
H21	H2	0.912000	0.417800	0.290800
N31	N3	0.899480	0.424230	0.093900
N41	N4	0.027800	0.462460	0.107600
N51	N5	0.015070	0.449340	0.229200
C31	C3	0.059060	0.445450	0.087000
H31	H3	0.073800	0.449700	0.011800
C41	C4	0.039890	0.424490	0.272700
H41	H4	0.037900	0.411300	0.352900
N61	N6	0.068080	0.421160	0.184900
N71	N7	0.988480	0.525450	0.178500
N81	N8	0.979290	0.505200	0.291200
C51	C5	0.984900	0.560170	0.219800
H51	H5	0.989500	0.580400	0.164100
C61	C6	0.970250	0.528770	0.389200
H61	H6	0.962300	0.521600	0.474300
N91	N9	0.974020	0.563940	0.350200
B11	B1	0.977700	0.462490	0.288900
H71	H7	0.973500	0.452300	0.379100
Mn11	Mn1	0.864140	0.371650	0.078450
N101	N10	0.874600	0.369310	0.881600
C71	C7	0.906230	0.362150	0.826700
H81	H8	0.908100	0.362800	0.733300
C81	C8	0.938930	0.353090	0.904600
C91	C9	0.972800	0.351100	0.835900
H91	H9	0.973500	0.354700	0.743200
C101	C10	0.005200	0.343900	0.904700
H101	H10	0.027500	0.342700	0.858500
C111	C11	0.004500	0.338600	0.038200
H111	H11	0.026600	0.334400	0.083700
C121	C12	0.971600	0.339200	0.110100
H121	H12	0.971800	0.334800	0.202400
C131	C13	0.938720	0.346380	0.044700
O11	O1	0.907450	0.345470	0.120400
N111	N11	0.820980	0.400820	0.014600
C141	C14	0.794590	0.413330	0.090400
H131	H13	0.776500	0.427800	0.049600
C151	C15	0.791040	0.406580	0.233600
C161	C16	0.757900	0.417800	0.297900
H141	H14	0.740400	0.431100	0.249200
C171	C17	0.751100	0.409600	0.431200
H151	H15	0.729100	0.417300	0.471100
C181	C18	0.776800	0.390000	0.505900
H161	H16	0.771800	0.384000	0.595200
C191	C19	0.809600	0.379500	0.447400
H171	H17	0.827000	0.366800	0.498800
C201	C20	0.817710	0.387480	0.312900
O21	O2	0.849660	0.375780	0.261400
C211	C21	0.842330	0.379770	0.798100
H181	H18	0.826000	0.358700	0.786400
H191	H19	0.850500	0.388000	0.709900
C221	C22	0.822470	0.410440	0.869600
H201	H20	0.835600	0.433600	0.857000
H211	H21	0.797600	0.413200	0.833900
N121	N12	0.447330	0.962180	0.556700
N131	N13	0.447210	0.950930	0.690900
C231	C23	0.418610	0.945250	0.503500
H221	H22	0.412000	0.947400	0.413300
C241	C24	0.418330	0.928750	0.709200
H231	H23	0.412000	0.917800	0.790800
N141	N14	0.399480	0.924230	0.593900
N151	N15	0.527800	0.962460	0.607600
N161	N16	0.515070	0.949340	0.729200
C251	C25	0.559060	0.945450	0.587000
H241	H24	0.573800	0.949700	0.511800
C261	C26	0.539890	0.924490	0.772700
H251	H25	0.537900	0.911300	0.852900
N171	N17	0.568080	0.921160	0.684900
N181	N18	0.488480	0.025450	0.678500
N191	N19	0.479290	0.005200	0.791200
C271	C27	0.484900	0.060170	0.719800
H261	H26	0.489500	0.080400	0.664100
C281	C28	0.470250	0.028770	0.889200
H271	H27	0.462300	0.021600	0.974300
N201	N20	0.474020	0.063940	0.850200
B21	B2	0.477700	0.962490	0.788900
H281	H28	0.473500	0.952300	0.879100
Mn21	Mn2	0.364140	0.871650	0.578450
N211	N21	0.374600	0.869310	0.381600
C291	C29	0.406230	0.862150	0.326700
H291	H29	0.408100	0.862800	0.233300
C301	C30	0.438930	0.853090	0.404600
C311	C31	0.472800	0.851100	0.335900
H301	H30	0.473500	0.854700	0.243200
C321	C32	0.505200	0.843900	0.404700
H311	H31	0.527500	0.842700	0.358500
C331	C33	0.504500	0.838600	0.538200
H321	H32	0.526600	0.834400	0.583700
C341	C34	0.471600	0.839200	0.610100
H331	H33	0.471800	0.834800	0.702400
C351	C35	0.438720	0.846380	0.544700
O31	O3	0.407450	0.845470	0.620400
N221	N22	0.320980	0.900820	0.514600
C361	C36	0.294590	0.913330	0.590400
H341	H34	0.276500	0.927800	0.549600
C371	C37	0.291040	0.906580	0.733600
C381	C38	0.257900	0.917800	0.797900
H351	H35	0.240400	0.931100	0.749200
C391	C39	0.251100	0.909600	0.931200
H361	H36	0.229100	0.917300	0.971100
C401	C40	0.276800	0.890000	0.005900
H371	H37	0.271800	0.884000	0.095200
C411	C41	0.309600	0.879500	0.947400
H381	H38	0.327000	0.866800	0.998800
C421	C42	0.317710	0.887480	0.812900
O41	O4	0.349660	0.875780	0.761400
C431	C43	0.342330	0.879770	0.298100
H391	H39	0.326000	0.858700	0.286400
H401	H40	0.350500	0.888000	0.209900
C441	C44	0.322470	0.910440	0.369600
H411	H41	0.335600	0.933600	0.357000
H421	H42	0.297600	0.913200	0.333900
N231	N23	0.552670	0.537820	0.556700
N241	N24	0.552790	0.549070	0.690900
C451	C45	0.581390	0.554750	0.503500
H431	H43	0.588000	0.552600	0.413300
C461	C46	0.581670	0.571250	0.709200
H441	H44	0.588000	0.582200	0.790800
N251	N25	0.600520	0.575770	0.593900
N261	N26	0.472200	0.537540	0.607600
N271	N27	0.484930	0.550660	0.729200
C471	C47	0.440940	0.554550	0.587000
H451	H45	0.426200	0.550300	0.511800
C481	C48	0.460110	0.575510	0.772700
H461	H46	0.462100	0.588700	0.852900
N281	N28	0.431920	0.578840	0.684900
N291	N29	0.511520	0.474550	0.678500
N301	N30	0.520710	0.494800	0.791200
C491	C49	0.515100	0.439830	0.719800
H471	H47	0.510500	0.419600	0.664100
C501	C50	0.529750	0.471230	0.889200
H481	H48	0.537700	0.478400	0.974300
N311	N31	0.525980	0.436060	0.850200
B31	B3	0.522300	0.537510	0.788900
H491	H49	0.526500	0.547700	0.879100
Mn31	Mn3	0.635860	0.628350	0.578450
N321	N32	0.625400	0.630690	0.381600
C511	C51	0.593770	0.637850	0.326700
H501	H50	0.591900	0.637200	0.233300
C521	C52	0.561070	0.646910	0.404600
C531	C53	0.527200	0.648900	0.335900
H511	H51	0.526500	0.645300	0.243200
C541	C54	0.494800	0.656100	0.404700
H521	H52	0.472500	0.657300	0.358500
C551	C55	0.495500	0.661400	0.538200
H531	H53	0.473400	0.665600	0.583700
C561	C56	0.528400	0.660800	0.610100
H541	H54	0.528200	0.665200	0.702400
C571	C57	0.561280	0.653620	0.544700
O51	O5	0.592550	0.654530	0.620400
N331	N33	0.679020	0.599180	0.514600
C581	C58	0.705410	0.586670	0.590400
H551	H55	0.723500	0.572200	0.549600
C591	C59	0.708960	0.593420	0.733600
C601	C60	0.742100	0.582200	0.797900
H561	H56	0.759600	0.568900	0.749200
C611	C61	0.748900	0.590400	0.931200
H571	H57	0.770900	0.582700	0.971100
C621	C62	0.723200	0.610000	0.005900
H581	H58	0.728200	0.616000	0.095200
C631	C63	0.690400	0.620500	0.947400
H591	H59	0.673000	0.633200	0.998800
C641	C64	0.682290	0.612520	0.812900
O61	O6	0.650340	0.624220	0.761400
C651	C65	0.657670	0.620230	0.298100
H601	H60	0.674000	0.641300	0.286400
H611	H61	0.649500	0.612000	0.209900
C661	C66	0.677530	0.589560	0.369600
H621	H62	0.664400	0.566400	0.357000
H631	H63	0.702400	0.586800	0.333900
N341	N34	0.052670	0.037820	0.056700
N351	N35	0.052790	0.049070	0.190900
C671	C67	0.081390	0.054750	0.003500
H641	H64	0.088000	0.052600	0.913300
C681	C68	0.081670	0.071250	0.209200
H651	H65	0.088000	0.082200	0.290800
N361	N36	0.100520	0.075770	0.093900
N371	N37	0.972200	0.037540	0.107600
N381	N38	0.984930	0.050660	0.229200
C691	C69	0.940940	0.054550	0.087000
H661	H66	0.926200	0.050300	0.011800
C701	C70	0.960110	0.075510	0.272700
H671	H67	0.962100	0.088700	0.352900
N391	N39	0.931920	0.078840	0.184900
N401	N40	0.011520	0.974550	0.178500
N411	N41	0.020710	0.994800	0.291200
C711	C71	0.015100	0.939830	0.219800
H681	H68	0.010500	0.919600	0.164100
C721	C72	0.029750	0.971230	0.389200
H691	H69	0.037700	0.978400	0.474300
N421	N42	0.025980	0.936060	0.350200
B41	B4	0.022300	0.037510	0.288900
H701	H70	0.026500	0.047700	0.379100
Mn41	Mn4	0.135860	0.128350	0.078450
N431	N43	0.125400	0.130690	0.881600
C731	C73	0.093770	0.137850	0.826700
H711	H71	0.091900	0.137200	0.733300
C741	C74	0.061070	0.146910	0.904600
C751	C75	0.027200	0.148900	0.835900
H721	H72	0.026500	0.145300	0.743200
C761	C76	0.994800	0.156100	0.904700
H731	H73	0.972500	0.157300	0.858500
C771	C77	0.995500	0.161400	0.038200
H741	H74	0.973400	0.165600	0.083700
C781	C78	0.028400	0.160800	0.110100
H751	H75	0.028200	0.165200	0.202400
C791	C79	0.061280	0.153620	0.044700
O71	O7	0.092550	0.154530	0.120400
N441	N44	0.179020	0.099180	0.014600
C801	C80	0.205410	0.086670	0.090400
H761	H76	0.223500	0.072200	0.049600
C811	C81	0.208960	0.093420	0.233600
C821	C82	0.242100	0.082200	0.297900
H771	H77	0.259600	0.068900	0.249200
C831	C83	0.248900	0.090400	0.431200
H781	H78	0.270900	0.082700	0.471100
C841	C84	0.223200	0.110000	0.505900
H791	H79	0.228200	0.116000	0.595200
C851	C85	0.190400	0.120500	0.447400
H801	H80	0.173000	0.133200	0.498800
C861	C86	0.182290	0.112520	0.312900
O81	O8	0.150340	0.124220	0.261400
C871	C87	0.157670	0.120230	0.798100
H811	H81	0.174000	0.141300	0.786400
H821	H82	0.149500	0.112000	0.709900
C881	C88	0.177530	0.089560	0.869600
H831	H83	0.164400	0.066400	0.857000
H841	H84	0.202400	0.086800	0.833900
N451	N45	0.287820	0.197330	0.306700
N461	N46	0.299070	0.197210	0.440900
C891	C89	0.304750	0.168610	0.253500
H851	H85	0.302600	0.162000	0.163300
C901	C90	0.321250	0.168330	0.459200
H861	H86	0.332200	0.162000	0.540800
N471	N47	0.325770	0.149480	0.343900
N481	N48	0.287540	0.277800	0.357600
N491	N49	0.300660	0.265070	0.479200
C911	C91	0.304550	0.309060	0.337000
H871	H87	0.300300	0.323800	0.261800
C921	C92	0.325510	0.289890	0.522700
H881	H88	0.338700	0.287900	0.602900
N501	N50	0.328840	0.318080	0.434900
N511	N51	0.224550	0.238480	0.428500
N521	N52	0.244800	0.229290	0.541200
C931	C93	0.189830	0.234900	0.469800
H891	H89	0.169600	0.239500	0.414100
C941	C94	0.221230	0.220250	0.639200
H901	H90	0.228400	0.212300	0.724300
N531	N53	0.186060	0.224020	0.600200
B51	B5	0.287510	0.227700	0.538900
H911	H91	0.297700	0.223500	0.629100
Mn51	Mn5	0.378350	0.114140	0.328450
N541	N54	0.380690	0.124600	0.131600
C951	C95	0.387850	0.156230	0.076700
H921	H92	0.387200	0.158100	0.983300
C961	C96	0.396910	0.188930	0.154600
C971	C97	0.398900	0.222800	0.085900
H931	H93	0.395300	0.223500	0.993200
C981	C98	0.406100	0.255200	0.154700
H941	H94	0.407300	0.277500	0.108500
C991	C99	0.411400	0.254500	0.288200
H951	H95	0.415600	0.276600	0.333700
C1001	C100	0.410800	0.221600	0.360100
H961	H96	0.415200	0.221800	0.452400
C1011	C101	0.403620	0.188720	0.294700
O91	O9	0.404530	0.157450	0.370400
N551	N55	0.349180	0.070980	0.264600
C1021	C102	0.336670	0.044590	0.340400
H971	H97	0.322200	0.026500	0.299600
C1031	C103	0.343420	0.041040	0.483600
C1041	C104	0.332200	0.007900	0.547900
H981	H98	0.318900	0.990400	0.499200
C1051	C105	0.340400	0.001100	0.681200
H991	H99	0.332700	0.979100	0.721100
C1061	C106	0.360000	0.026800	0.755900
H1001	H100	0.366000	0.021800	0.845200
C1071	C107	0.370500	0.059600	0.697400
H1011	H101	0.383200	0.077000	0.748800
C1081	C108	0.362520	0.067710	0.562900
O101	O10	0.374220	0.099660	0.511400
C1091	C109	0.370230	0.092330	0.048100
H1021	H102	0.391300	0.076000	0.036400
H1031	H103	0.362000	0.100500	0.959900
C1101	C110	0.339560	0.072470	0.119600
H1041	H104	0.316400	0.085600	0.107000
H1051	H105	0.336800	0.047600	0.083900
N561	N56	0.787820	0.697330	0.806700
N571	N57	0.799070	0.697210	0.940900
C1111	C111	0.804750	0.668610	0.753500
H1061	H106	0.802600	0.662000	0.663300
C1121	C112	0.821250	0.668330	0.959200
H1071	H107	0.832200	0.662000	0.040800
N581	N58	0.825770	0.649480	0.843900
N591	N59	0.787540	0.777800	0.857600
N601	N60	0.800660	0.765070	0.979200
C1131	C113	0.804550	0.809060	0.837000
H1081	H108	0.800300	0.823800	0.761800
C1141	C114	0.825510	0.789890	0.022700
H1091	H109	0.838700	0.787900	0.102900
N611	N61	0.828840	0.818080	0.934900
N621	N62	0.724550	0.738480	0.928500
N631	N63	0.744800	0.729290	0.041200
C1151	C115	0.689830	0.734900	0.969800
H1101	H110	0.669600	0.739500	0.914100
C1161	C116	0.721230	0.720250	0.139200
H1111	H111	0.728400	0.712300	0.224300
N641	N64	0.686060	0.724020	0.100200
B61	B6	0.787510	0.727700	0.038900
H1121	H112	0.797700	0.723500	0.129100
Mn61	Mn6	0.878350	0.614140	0.828450
N651	N65	0.880690	0.624600	0.631600
C1171	C117	0.887850	0.656230	0.576700
H1131	H113	0.887200	0.658100	0.483300
C1181	C118	0.896910	0.688930	0.654600
C1191	C119	0.898900	0.722800	0.585900
H1141	H114	0.895300	0.723500	0.493200
C1201	C120	0.906100	0.755200	0.654700
H1151	H115	0.907300	0.777500	0.608500
C1211	C121	0.911400	0.754500	0.788200
H1161	H116	0.915600	0.776600	0.833700
C1221	C122	0.910800	0.721600	0.860100
H1171	H117	0.915200	0.721800	0.952400
C1231	C123	0.903620	0.688720	0.794700
O111	O11	0.904530	0.657450	0.870400
N661	N66	0.849180	0.570980	0.764600
C1241	C124	0.836670	0.544590	0.840400
H1181	H118	0.822200	0.526500	0.799600
C1251	C125	0.843420	0.541040	0.983600
C1261	C126	0.832200	0.507900	0.047900
H1191	H119	0.818900	0.490400	0.999200
C1271	C127	0.840400	0.501100	0.181200
H1201	H120	0.832700	0.479100	0.221100
C1281	C128	0.860000	0.526800	0.255900
H1211	H121	0.866000	0.521800	0.345200
C1291	C129	0.870500	0.559600	0.197400
H1221	H122	0.883200	0.577000	0.248800
C1301	C130	0.862520	0.567710	0.062900
O121	O12	0.874220	0.599660	0.011400
C1311	C131	0.870230	0.592330	0.548100
H1231	H123	0.891300	0.576000	0.536400
H1241	H124	0.862000	0.600500	0.459900
C1321	C132	0.839560	0.572470	0.619600
H1251	H125	0.816400	0.585600	0.607000
H1261	H126	0.836800	0.547600	0.583900
N671	N67	0.212180	0.802670	0.806700
N681	N68	0.200930	0.802790	0.940900
C1331	C133	0.195250	0.831390	0.753500
H1271	H127	0.197400	0.838000	0.663300
C1341	C134	0.178750	0.831670	0.959200
H1281	H128	0.167800	0.838000	0.040800
N691	N69	0.174230	0.850520	0.843900
N701	N70	0.212460	0.722200	0.857600
N711	N71	0.199340	0.734930	0.979200
C1351	C135	0.195450	0.690940	0.837000
H1291	H129	0.199700	0.676200	0.761800
C1361	C136	0.174490	0.710110	0.022700
H1301	H130	0.161300	0.712100	0.102900
N721	N72	0.171160	0.681920	0.934900
N731	N73	0.275450	0.761520	0.928500
N741	N74	0.255200	0.770710	0.041200
C1371	C137	0.310170	0.765100	0.969800
H1311	H131	0.330400	0.760500	0.914100
C1381	C138	0.278770	0.779750	0.139200
H1321	H132	0.271600	0.787700	0.224300
N751	N75	0.313940	0.775980	0.100200
B71	B7	0.212490	0.772300	0.038900
H1331	H133	0.202300	0.776500	0.129100
Mn71	Mn7	0.121650	0.885860	0.828450
N761	N76	0.119310	0.875400	0.631600
C1391	C139	0.112150	0.843770	0.576700
H1341	H134	0.112800	0.841900	0.483300
C1401	C140	0.103090	0.811070	0.654600
C1411	C141	0.101100	0.777200	0.585900
H1351	H135	0.104700	0.776500	0.493200
C1421	C142	0.093900	0.744800	0.654700
H1361	H136	0.092700	0.722500	0.608500
C1431	C143	0.088600	0.745500	0.788200
H1371	H137	0.084400	0.723400	0.833700
C1441	C144	0.089200	0.778400	0.860100
H1381	H138	0.084800	0.778200	0.952400
C1451	C145	0.096380	0.811280	0.794700
O131	O13	0.095470	0.842550	0.870400
N771	N77	0.150820	0.929020	0.764600
C1461	C146	0.163330	0.955410	0.840400
H1391	H139	0.177800	0.973500	0.799600
C1471	C147	0.156580	0.958960	0.983600
C1481	C148	0.167800	0.992100	0.047900
H1401	H140	0.181100	0.009600	0.999200
C1491	C149	0.159600	0.998900	0.181200
H1411	H141	0.167300	0.020900	0.221100
C1501	C150	0.140000	0.973200	0.255900
H1421	H142	0.134000	0.978200	0.345200
C1511	C151	0.129500	0.940400	0.197400
H1431	H143	0.116800	0.923000	0.248800
C1521	C152	0.137480	0.932290	0.062900
O141	O14	0.125780	0.900340	0.011400
C1531	C153	0.129770	0.907670	0.548100
H1441	H144	0.108700	0.924000	0.536400
H1451	H145	0.138000	0.899500	0.459900
C1541	C154	0.160440	0.927530	0.619600
H1461	H146	0.183600	0.914400	0.607000
H1471	H147	0.163200	0.952400	0.583900
N781	N78	0.712180	0.302670	0.306700
N791	N79	0.700930	0.302790	0.440900
C1551	C155	0.695250	0.331390	0.253500
H1481	H148	0.697400	0.338000	0.163300
C1561	C156	0.678750	0.331670	0.459200
H1491	H149	0.667800	0.338000	0.540800
N801	N80	0.674230	0.350520	0.343900
N811	N81	0.712460	0.222200	0.357600
N821	N82	0.699340	0.234930	0.479200
C1571	C157	0.695450	0.190940	0.337000
H1501	H150	0.699700	0.176200	0.261800
C1581	C158	0.674490	0.210110	0.522700
H1511	H151	0.661300	0.212100	0.602900
N831	N83	0.671160	0.181920	0.434900
N841	N84	0.775450	0.261520	0.428500
N851	N85	0.755200	0.270710	0.541200
C1591	C159	0.810170	0.265100	0.469800
H1521	H152	0.830400	0.260500	0.414100
C1601	C160	0.778770	0.279750	0.639200
H1531	H153	0.771600	0.287700	0.724300
N861	N86	0.813940	0.275980	0.600200
B81	B8	0.712490	0.272300	0.538900
H1541	H154	0.702300	0.276500	0.629100
Mn81	Mn8	0.621650	0.385860	0.328450
N871	N87	0.619310	0.375400	0.131600
C1611	C161	0.612150	0.343770	0.076700
H1551	H155	0.612800	0.341900	0.983300
C1621	C162	0.603090	0.311070	0.154600
C1631	C163	0.601100	0.277200	0.085900
H1561	H156	0.604700	0.276500	0.993200
C1641	C164	0.593900	0.244800	0.154700
H1571	H157	0.592700	0.222500	0.108500
C1651	C165	0.588600	0.245500	0.288200
H1581	H158	0.584400	0.223400	0.333700
C1661	C166	0.589200	0.278400	0.360100
H1591	H159	0.584800	0.278200	0.452400
C1671	C167	0.596380	0.311280	0.294700
O151	O15	0.595470	0.342550	0.370400
N881	N88	0.650820	0.429020	0.264600
C1681	C168	0.663330	0.455410	0.340400
H1601	H160	0.677800	0.473500	0.299600
C1691	C169	0.656580	0.458960	0.483600
C1701	C170	0.667800	0.492100	0.547900
H1611	H161	0.681100	0.509600	0.499200
C1711	C171	0.659600	0.498900	0.681200
H1621	H162	0.667300	0.520900	0.721100
C1721	C172	0.640000	0.473200	0.755900
H1631	H163	0.634000	0.478200	0.845200
C1731	C173	0.629500	0.440400	0.697400
H1641	H164	0.616800	0.423000	0.748800
C1741	C174	0.637480	0.432290	0.562900
O161	O16	0.625780	0.400340	0.511400
C1751	C175	0.629770	0.407670	0.048100
H1651	H165	0.608700	0.424000	0.036400
H1661	H166	0.638000	0.399500	0.959900
C1761	C176	0.660440	0.427530	0.119600
H1671	H167	0.683600	0.414400	0.107000
H1681	H168	0.663200	0.452400	0.083900
N891	N89	0.052670	0.537820	0.943300
N901	N90	0.052790	0.549070	0.809100
C1771	C177	0.081390	0.554750	0.996500
H1691	H169	0.088000	0.552600	0.086700
C1781	C178	0.081670	0.571250	0.790800
H1701	H170	0.088000	0.582200	0.709200
N911	N91	0.100520	0.575770	0.906100
N921	N92	0.972200	0.537540	0.892400
N931	N93	0.984930	0.550660	0.770800
C1791	C179	0.940940	0.554550	0.913000
H1711	H171	0.926200	0.550300	0.988200
C1801	C180	0.960110	0.575510	0.727300
H1721	H172	0.962100	0.588700	0.647100
N941	N94	0.931920	0.578840	0.815100
N951	N95	0.011520	0.474550	0.821500
N961	N96	0.020710	0.494800	0.708800
C1811	C181	0.015100	0.439830	0.780200
H1731	H173	0.010500	0.419600	0.835900
C1821	C182	0.029750	0.471230	0.610800
H1741	H174	0.037700	0.478400	0.525700
N971	N97	0.025980	0.436060	0.649800
B91	B9	0.022300	0.537510	0.711100
H1751	H175	0.026500	0.547700	0.620900
Mn91	Mn9	0.135860	0.628350	0.921550
N981	N98	0.125400	0.630690	0.118400
C1831	C183	0.093770	0.637850	0.173300
H1761	H176	0.091900	0.637200	0.266700
C1841	C184	0.061070	0.646910	0.095400
C1851	C185	0.027200	0.648900	0.164100
H1771	H177	0.026500	0.645300	0.256800
C1861	C186	0.994800	0.656100	0.095300
H1781	H178	0.972500	0.657300	0.141500
C1871	C187	0.995500	0.661400	0.961800
H1791	H179	0.973400	0.665600	0.916300
C1881	C188	0.028400	0.660800	0.889900
H1801	H180	0.028200	0.665200	0.797600
C1891	C189	0.061280	0.653620	0.955300
O171	O17	0.092550	0.654530	0.879600
N991	N99	0.179020	0.599180	0.985400
C1901	C190	0.205410	0.586670	0.909600
H1811	H181	0.223500	0.572200	0.950400
C1911	C191	0.208960	0.593420	0.766400
C1921	C192	0.242100	0.582200	0.702100
H1821	H182	0.259600	0.568900	0.750800
C1931	C193	0.248900	0.590400	0.568800
H1831	H183	0.270900	0.582700	0.528900
C1941	C194	0.223200	0.610000	0.494100
H1841	H184	0.228200	0.616000	0.404800
C1951	C195	0.190400	0.620500	0.552600
H1851	H185	0.173000	0.633200	0.501200
C1961	C196	0.182290	0.612520	0.687100
O181	O18	0.150340	0.624220	0.738600
C1971	C197	0.157670	0.620230	0.201900
H1861	H186	0.174000	0.641300	0.213600
H1871	H187	0.149500	0.612000	0.290100
C1981	C198	0.177530	0.589560	0.130400
H1881	H188	0.164400	0.566400	0.143000
H1891	H189	0.202400	0.586800	0.166100
N1001	N100	0.552670	0.037820	0.443300
N1011	N101	0.552790	0.049070	0.309100
C1991	C199	0.581390	0.054750	0.496500
H1901	H190	0.588000	0.052600	0.586700
C2001	C200	0.581670	0.071250	0.290800
H1911	H191	0.588000	0.082200	0.209200
N1021	N102	0.600520	0.075770	0.406100
N1031	N103	0.472200	0.037540	0.392400
N1041	N104	0.484930	0.050660	0.270800
C2011	C201	0.440940	0.054550	0.413000
H1921	H192	0.426200	0.050300	0.488200
C2021	C202	0.460110	0.075510	0.227300
H1931	H193	0.462100	0.088700	0.147100
N1051	N105	0.431920	0.078840	0.315100
N1061	N106	0.511520	0.974550	0.321500
N1071	N107	0.520710	0.994800	0.208800
C2031	C203	0.515100	0.939830	0.280200
H1941	H194	0.510500	0.919600	0.335900
C2041	C204	0.529750	0.971230	0.110800
H1951	H195	0.537700	0.978400	0.025700
N1081	N108	0.525980	0.936060	0.149800
B101	B10	0.522300	0.037510	0.211100
H1961	H196	0.526500	0.047700	0.120900
Mn101	Mn10	0.635860	0.128350	0.421550
N1091	N109	0.625400	0.130690	0.618400
C2051	C205	0.593770	0.137850	0.673300
H1971	H197	0.591900	0.137200	0.766700
C2061	C206	0.561070	0.146910	0.595400
C2071	C207	0.527200	0.148900	0.664100
H1981	H198	0.526500	0.145300	0.756800
C2081	C208	0.494800	0.156100	0.595300
H1991	H199	0.472500	0.157300	0.641500
C2091	C209	0.495500	0.161400	0.461800
H2001	H200	0.473400	0.165600	0.416300
C2101	C210	0.528400	0.160800	0.389900
H2011	H201	0.528200	0.165200	0.297600
C2111	C211	0.561280	0.153620	0.455300
O191	O19	0.592550	0.154530	0.379600
N1101	N110	0.679020	0.099180	0.485400
C2121	C212	0.705410	0.086670	0.409600
H2021	H202	0.723500	0.072200	0.450400
C2131	C213	0.708960	0.093420	0.266400
C2141	C214	0.742100	0.082200	0.202100
H2031	H203	0.759600	0.068900	0.250800
C2151	C215	0.748900	0.090400	0.068800
H2041	H204	0.770900	0.082700	0.028900
C2161	C216	0.723200	0.110000	0.994100
H2051	H205	0.728200	0.116000	0.904800
C2171	C217	0.690400	0.120500	0.052600
H2061	H206	0.673000	0.133200	0.001200
C2181	C218	0.682290	0.112520	0.187100
O201	O20	0.650340	0.124220	0.238600
C2191	C219	0.657670	0.120230	0.701900
H2071	H207	0.674000	0.141300	0.713600
H2081	H208	0.649500	0.112000	0.790100
C2201	C220	0.677530	0.089560	0.630400
H2091	H209	0.664400	0.066400	0.643000
H2101	H210	0.702400	0.086800	0.666100
N1111	N111	0.447330	0.462180	0.443300
N1121	N112	0.447210	0.450930	0.309100
C2211	C221	0.418610	0.445250	0.496500
H2111	H211	0.412000	0.447400	0.586700
C2221	C222	0.418330	0.428750	0.290800
H2121	H212	0.412000	0.417800	0.209200
N1131	N113	0.399480	0.424230	0.406100
N1141	N114	0.527800	0.462460	0.392400
N1151	N115	0.515070	0.449340	0.270800
C2231	C223	0.559060	0.445450	0.413000
H2131	H213	0.573800	0.449700	0.488200
C2241	C224	0.539890	0.424490	0.227300
H2141	H214	0.537900	0.411300	0.147100
N1161	N116	0.568080	0.421160	0.315100
N1171	N117	0.488480	0.525450	0.321500
N1181	N118	0.479290	0.505200	0.208800
C2251	C225	0.484900	0.560170	0.280200
H2151	H215	0.489500	0.580400	0.335900
C2261	C226	0.470250	0.528770	0.110800
H2161	H216	0.462300	0.521600	0.025700
N1191	N119	0.474020	0.563940	0.149800
B111	B11	0.477700	0.462490	0.211100
H2171	H217	0.473500	0.452300	0.120900
Mn111	Mn11	0.364140	0.371650	0.421550
N1201	N120	0.374600	0.369310	0.618400
C2271	C227	0.406230	0.362150	0.673300
H2181	H218	0.408100	0.362800	0.766700
C2281	C228	0.438930	0.353090	0.595400
C2291	C229	0.472800	0.351100	0.664100
H2191	H219	0.473500	0.354700	0.756800
C2301	C230	0.505200	0.343900	0.595300
H2201	H220	0.527500	0.342700	0.641500
C2311	C231	0.504500	0.338600	0.461800
H2211	H221	0.526600	0.334400	0.416300
C2321	C232	0.471600	0.339200	0.389900
H2221	H222	0.471800	0.334800	0.297600
C2331	C233	0.438720	0.346380	0.455300
O211	O21	0.407450	0.345470	0.379600
N1211	N121	0.320980	0.400820	0.485400
C2341	C234	0.294590	0.413330	0.409600
H2231	H223	0.276500	0.427800	0.450400
C2351	C235	0.291040	0.406580	0.266400
C2361	C236	0.257900	0.417800	0.202100
H2241	H224	0.240400	0.431100	0.250800
C2371	C237	0.251100	0.409600	0.068800
H2251	H225	0.229100	0.417300	0.028900
C2381	C238	0.276800	0.390000	0.994100
H2261	H226	0.271800	0.384000	0.904800
C2391	C239	0.309600	0.379500	0.052600
H2271	H227	0.327000	0.366800	0.001200
C2401	C240	0.317710	0.387480	0.187100
O221	O22	0.349660	0.375780	0.238600
C2411	C241	0.342330	0.379770	0.701900
H2281	H228	0.326000	0.358700	0.713600
H2291	H229	0.350500	0.388000	0.790100
C2421	C242	0.322470	0.410440	0.630400
H2301	H230	0.335600	0.433600	0.643000
H2311	H231	0.297600	0.413200	0.666100
N1221	N122	0.947330	0.962180	0.943300
N1231	N123	0.947210	0.950930	0.809100
C2431	C243	0.918610	0.945250	0.996500
H2321	H232	0.912000	0.947400	0.086700
C2441	C244	0.918330	0.928750	0.790800
H2331	H233	0.912000	0.917800	0.709200
N1241	N124	0.899480	0.924230	0.906100
N1251	N125	0.027800	0.962460	0.892400
N1261	N126	0.015070	0.949340	0.770800
C2451	C245	0.059060	0.945450	0.913000
H2341	H234	0.073800	0.949700	0.988200
C2461	C246	0.039890	0.924490	0.727300
H2351	H235	0.037900	0.911300	0.647100
N1271	N127	0.068080	0.921160	0.815100
N1281	N128	0.988480	0.025450	0.821500
N1291	N129	0.979290	0.005200	0.708800
C2471	C247	0.984900	0.060170	0.780200
H2361	H236	0.989500	0.080400	0.835900
C2481	C248	0.970250	0.028770	0.610800
H2371	H237	0.962300	0.021600	0.525700
N1301	N130	0.974020	0.063940	0.649800
B121	B12	0.977700	0.962490	0.711100
H2381	H238	0.973500	0.952300	0.620900
Mn121	Mn12	0.864140	0.871650	0.921550
N1311	N131	0.874600	0.869310	0.118400
C2491	C249	0.906230	0.862150	0.173300
H2391	H239	0.908100	0.862800	0.266700
C2501	C250	0.938930	0.853090	0.095400
C2511	C251	0.972800	0.851100	0.164100
H2401	H240	0.973500	0.854700	0.256800
C2521	C252	0.005200	0.843900	0.095300
H2411	H241	0.027500	0.842700	0.141500
C2531	C253	0.004500	0.838600	0.961800
H2421	H242	0.026600	0.834400	0.916300
C2541	C254	0.971600	0.839200	0.889900
H2431	H243	0.971800	0.834800	0.797600
C2551	C255	0.938720	0.846380	0.955300
O231	O23	0.907450	0.845470	0.879600
N1321	N132	0.820980	0.900820	0.985400
C2561	C256	0.794590	0.913330	0.909600
H2441	H244	0.776500	0.927800	0.950400
C2571	C257	0.791040	0.906580	0.766400
C2581	C258	0.757900	0.917800	0.702100
H2451	H245	0.740400	0.931100	0.750800
C2591	C259	0.751100	0.909600	0.568800
H2461	H246	0.729100	0.917300	0.528900
C2601	C260	0.776800	0.890000	0.494100
H2471	H247	0.771800	0.884000	0.404800
C2611	C261	0.809600	0.879500	0.552600
H2481	H248	0.827000	0.866800	0.501200
C2621	C262	0.817710	0.887480	0.687100
O241	O24	0.849660	0.875780	0.738600
C2631	C263	0.842330	0.879770	0.201900
H2491	H249	0.826000	0.858700	0.213600
H2501	H250	0.850500	0.888000	0.290100
C2641	C264	0.822470	0.910440	0.130400
H2511	H251	0.835600	0.933600	0.143000
H2521	H252	0.797600	0.913200	0.166100
N1331	N133	0.712180	0.802670	0.693300
N1341	N134	0.700930	0.802790	0.559100
C2651	C265	0.695250	0.831390	0.746500
H2531	H253	0.697400	0.838000	0.836700
C2661	C266	0.678750	0.831670	0.540800
H2541	H254	0.667800	0.838000	0.459200
N1351	N135	0.674230	0.850520	0.656100
N1361	N136	0.712460	0.722200	0.642400
N1371	N137	0.699340	0.734930	0.520800
C2671	C267	0.695450	0.690940	0.663000
H2551	H255	0.699700	0.676200	0.738200
C2681	C268	0.674490	0.710110	0.477300
H2561	H256	0.661300	0.712100	0.397100
N1381	N138	0.671160	0.681920	0.565100
N1391	N139	0.775450	0.761520	0.571500
N1401	N140	0.755200	0.770710	0.458800
C2691	C269	0.810170	0.765100	0.530200
H2571	H257	0.830400	0.760500	0.585900
C2701	C270	0.778770	0.779750	0.360800
H2581	H258	0.771600	0.787700	0.275700
N1411	N141	0.813940	0.775980	0.399800
B131	B13	0.712490	0.772300	0.461100
H2591	H259	0.702300	0.776500	0.370900
Mn131	Mn13	0.621650	0.885860	0.671550
N1421	N142	0.619310	0.875400	0.868400
C2711	C271	0.612150	0.843770	0.923300
H2601	H260	0.612800	0.841900	0.016700
C2721	C272	0.603090	0.811070	0.845400
C2731	C273	0.601100	0.777200	0.914100
H2611	H261	0.604700	0.776500	0.006800
C2741	C274	0.593900	0.744800	0.845300
H2621	H262	0.592700	0.722500	0.891500
C2751	C275	0.588600	0.745500	0.711800
H2631	H263	0.584400	0.723400	0.666300
C2761	C276	0.589200	0.778400	0.639900
H2641	H264	0.584800	0.778200	0.547600
C2771	C277	0.596380	0.811280	0.705300
O251	O25	0.595470	0.842550	0.629600
N1431	N143	0.650820	0.929020	0.735400
C2781	C278	0.663330	0.955410	0.659600
H2651	H265	0.677800	0.973500	0.700400
C2791	C279	0.656580	0.958960	0.516400
C2801	C280	0.667800	0.992100	0.452100
H2661	H266	0.681100	0.009600	0.500800
C2811	C281	0.659600	0.998900	0.318800
H2671	H267	0.667300	0.020900	0.278900
C2821	C282	0.640000	0.973200	0.244100
H2681	H268	0.634000	0.978200	0.154800
C2831	C283	0.629500	0.940400	0.302600
H2691	H269	0.616800	0.923000	0.251200
C2841	C284	0.637480	0.932290	0.437100
O261	O26	0.625780	0.900340	0.488600
C2851	C285	0.629770	0.907670	0.951900
H2701	H270	0.608700	0.924000	0.963600
H2711	H271	0.638000	0.899500	0.040100
C2861	C286	0.660440	0.927530	0.880400
H2721	H272	0.683600	0.914400	0.893000
H2731	H273	0.663200	0.952400	0.916100
N1441	N144	0.212180	0.302670	0.193300
N1451	N145	0.200930	0.302790	0.059100
C2871	C287	0.195250	0.331390	0.246500
H2741	H274	0.197400	0.338000	0.336700
C2881	C288	0.178750	0.331670	0.040800
H2751	H275	0.167800	0.338000	0.959200
N1461	N146	0.174230	0.350520	0.156100
N1471	N147	0.212460	0.222200	0.142400
N1481	N148	0.199340	0.234930	0.020800
C2891	C289	0.195450	0.190940	0.163000
H2761	H276	0.199700	0.176200	0.238200
C2901	C290	0.174490	0.210110	0.977300
H2771	H277	0.161300	0.212100	0.897100
N1491	N149	0.171160	0.181920	0.065100
N1501	N150	0.275450	0.261520	0.071500
N1511	N151	0.255200	0.270710	0.958800
C2911	C291	0.310170	0.265100	0.030200
H2781	H278	0.330400	0.260500	0.085900
C2921	C292	0.278770	0.279750	0.860800
H2791	H279	0.271600	0.287700	0.775700
N1521	N152	0.313940	0.275980	0.899800
B141	B14	0.212490	0.272300	0.961100
H2801	H280	0.202300	0.276500	0.870900
Mn141	Mn14	0.121650	0.385860	0.171550
N1531	N153	0.119310	0.375400	0.368400
C2931	C293	0.112150	0.343770	0.423300
H2811	H281	0.112800	0.341900	0.516700
C2941	C294	0.103090	0.311070	0.345400
C2951	C295	0.101100	0.277200	0.414100
H2821	H282	0.104700	0.276500	0.506800
C2961	C296	0.093900	0.244800	0.345300
H2831	H283	0.092700	0.222500	0.391500
C2971	C297	0.088600	0.245500	0.211800
H2841	H284	0.084400	0.223400	0.166300
C2981	C298	0.089200	0.278400	0.139900
H2851	H285	0.084800	0.278200	0.047600
C2991	C299	0.096380	0.311280	0.205300
O271	O27	0.095470	0.342550	0.129600
N1541	N154	0.150820	0.429020	0.235400
C3001	C300	0.163330	0.455410	0.159600
H2861	H286	0.177800	0.473500	0.200400
C3011	C301	0.156580	0.458960	0.016400
C3021	C302	0.167800	0.492100	0.952100
H2871	H287	0.181100	0.509600	0.000800
C3031	C303	0.159600	0.498900	0.818800
H2881	H288	0.167300	0.520900	0.778900
C3041	C304	0.140000	0.473200	0.744100
H2891	H289	0.134000	0.478200	0.654800
C3051	C305	0.129500	0.440400	0.802600
H2901	H290	0.116800	0.423000	0.751200
C3061	C306	0.137480	0.432290	0.937100
O281	O28	0.125780	0.400340	0.988600
C3071	C307	0.129770	0.407670	0.451900
H2911	H291	0.108700	0.424000	0.463600
H2921	H292	0.138000	0.399500	0.540100
C3081	C308	0.160440	0.427530	0.380400
H2931	H293	0.183600	0.414400	0.393000
H2941	H294	0.163200	0.452400	0.416100
N1551	N155	0.787820	0.197330	0.193300
N1561	N156	0.799070	0.197210	0.059100
C3091	C309	0.804750	0.168610	0.246500
H2951	H295	0.802600	0.162000	0.336700
C3101	C310	0.821250	0.168330	0.040800
H2961	H296	0.832200	0.162000	0.959200
N1571	N157	0.825770	0.149480	0.156100
N1581	N158	0.787540	0.277800	0.142400
N1591	N159	0.800660	0.265070	0.020800
C3111	C311	0.804550	0.309060	0.163000
H2971	H297	0.800300	0.323800	0.238200
C3121	C312	0.825510	0.289890	0.977300
H2981	H298	0.838700	0.287900	0.897100
N1601	N160	0.828840	0.318080	0.065100
N1611	N161	0.724550	0.238480	0.071500
N1621	N162	0.744800	0.229290	0.958800
C3131	C313	0.689830	0.234900	0.030200
H2991	H299	0.669600	0.239500	0.085900
C3141	C314	0.721230	0.220250	0.860800
H3001	H300	0.728400	0.212300	0.775700
N1631	N163	0.686060	0.224020	0.899800
B151	B15	0.787510	0.227700	0.961100
H3011	H301	0.797700	0.223500	0.870900
Mn151	Mn15	0.878350	0.114140	0.171550
N1641	N164	0.880690	0.124600	0.368400
C3151	C315	0.887850	0.156230	0.423300
H3021	H302	0.887200	0.158100	0.516700
C3161	C316	0.896910	0.188930	0.345400
C3171	C317	0.898900	0.222800	0.414100
H3031	H303	0.895300	0.223500	0.506800
C3181	C318	0.906100	0.255200	0.345300
H3041	H304	0.907300	0.277500	0.391500
C3191	C319	0.911400	0.254500	0.211800
H3051	H305	0.915600	0.276600	0.166300
C3201	C320	0.910800	0.221600	0.139900
H3061	H306	0.915200	0.221800	0.047600
C3211	C321	0.903620	0.188720	0.205300
O291	O29	0.904530	0.157450	0.129600
N1651	N165	0.849180	0.070980	0.235400
C3221	C322	0.836670	0.044590	0.159600
H3071	H307	0.822200	0.026500	0.200400
C3231	C323	0.843420	0.041040	0.016400
C3241	C324	0.832200	0.007900	0.952100
H3081	H308	0.818900	0.990400	0.000800
C3251	C325	0.840400	0.001100	0.818800
H3091	H309	0.832700	0.979100	0.778900
C3261	C326	0.860000	0.026800	0.744100
H3101	H310	0.866000	0.021800	0.654800
C3271	C327	0.870500	0.059600	0.802600
H3111	H311	0.883200	0.077000	0.751200
C3281	C328	0.862520	0.067710	0.937100
O301	O30	0.874220	0.099660	0.988600
C3291	C329	0.870230	0.092330	0.451900
H3121	H312	0.891300	0.076000	0.463600
H3131	H313	0.862000	0.100500	0.540100
C3301	C330	0.839560	0.072470	0.380400
H3141	H314	0.816400	0.085600	0.393000
H3151	H315	0.836800	0.047600	0.416100
N1661	N166	0.287820	0.697330	0.693300
N1671	N167	0.299070	0.697210	0.559100
C3311	C331	0.304750	0.668610	0.746500
H3161	H316	0.302600	0.662000	0.836700
C3321	C332	0.321250	0.668330	0.540800
H3171	H317	0.332200	0.662000	0.459200
N1681	N168	0.325770	0.649480	0.656100
N1691	N169	0.287540	0.777800	0.642400
N1701	N170	0.300660	0.765070	0.520800
C3331	C333	0.304550	0.809060	0.663000
H3181	H318	0.300300	0.823800	0.738200
C3341	C334	0.325510	0.789890	0.477300
H3191	H319	0.338700	0.787900	0.397100
N1711	N171	0.328840	0.818080	0.565100
N1721	N172	0.224550	0.738480	0.571500
N1731	N173	0.244800	0.729290	0.458800
C3351	C335	0.189830	0.734900	0.530200
H3201	H320	0.169600	0.739500	0.585900
C3361	C336	0.221230	0.720250	0.360800
H3211	H321	0.228400	0.712300	0.275700
N1741	N174	0.186060	0.724020	0.399800
B161	B16	0.287510	0.727700	0.461100
H3221	H322	0.297700	0.723500	0.370900
Mn161	Mn16	0.378350	0.614140	0.671550
N1751	N175	0.380690	0.624600	0.868400
C3371	C337	0.387850	0.656230	0.923300
H3231	H323	0.387200	0.658100	0.016700
C3381	C338	0.396910	0.688930	0.845400
C3391	C339	0.398900	0.722800	0.914100
H3241	H324	0.395300	0.723500	0.006800
C3401	C340	0.406100	0.755200	0.845300
H3251	H325	0.407300	0.777500	0.891500
C3411	C341	0.411400	0.754500	0.711800
H3261	H326	0.415600	0.776600	0.666300
C3421	C342	0.410800	0.721600	0.639900
H3271	H327	0.415200	0.721800	0.547600
C3431	C343	0.403620	0.688720	0.705300
O311	O31	0.404530	0.657450	0.629600
N1761	N176	0.349180	0.570980	0.735400
C3441	C344	0.336670	0.544590	0.659600
H3281	H328	0.322200	0.526500	0.700400
C3451	C345	0.343420	0.541040	0.516400
C3461	C346	0.332200	0.507900	0.452100
H3291	H329	0.318900	0.490400	0.500800
C3471	C347	0.340400	0.501100	0.318800
H3301	H330	0.332700	0.479100	0.278900
C3481	C348	0.360000	0.526800	0.244100
H3311	H331	0.366000	0.521800	0.154800
C3491	C349	0.370500	0.559600	0.302600
H3321	H332	0.383200	0.577000	0.251200
C3501	C350	0.362520	0.567710	0.437100
O321	O32	0.374220	0.599660	0.488600
C3511	C351	0.370230	0.592330	0.951900
H3331	H333	0.391300	0.576000	0.963600
H3341	H334	0.362000	0.600500	0.040100
C3521	C352	0.339560	0.572470	0.880400
H3351	H335	0.316400	0.585600	0.893000
H3361	H336	0.336800	0.547600	0.916100
Cu11	Cu1	0.000000	0.500000	0.000000
Cu21	Cu2	0.500000	0.000000	0.500000
Cu31	Cu3	0.500000	0.500000	0.500000
Cu41	Cu4	0.000000	0.000000	0.000000
Cu51	Cu5	0.250000	0.250000	0.250000
Cu61	Cu6	0.250000	0.750000	0.750000
Cu71	Cu7	0.750000	0.750000	0.750000
Cu81	Cu8	0.750000	0.250000	0.250000
