data_YOJMAN_clean_PM
_symmetry_space_group_name_H-M	'P1'
_cell_length_a	19.144000
_cell_length_b	23.388000
_cell_length_c	22.860000
_cell_angle_alpha	90.000000
_cell_angle_beta	102.838000
_cell_angle_gamma	90.000000
_symmetry_Int_Tables_number 1

loop_
_symmetry_equiv_pos_as_xyz
'x,y,z'

loop_
_atom_site_label
_atom_site_type_symbol
_atom_site_fract_x
_atom_site_fract_y
_atom_site_fract_z
W11	W1	0.669700	0.813760	0.994470
O11	O1	0.742400	0.760100	0.031300
O21	O2	0.723600	0.870400	0.050300
O31	O3	0.649700	0.793600	0.091100
O41	O4	0.590700	0.860900	0.988500
O51	O5	0.607800	0.751700	0.969600
W21	W2	0.747840	0.730070	0.112330
W31	W3	0.724570	0.871340	0.133150
P11	P1	0.574400	0.778800	0.105000
W41	W4	0.487270	0.868610	0.988440
W51	W5	0.513750	0.715450	0.962680
O61	O6	0.783800	0.804200	0.141100
O71	O7	0.719600	0.717000	0.183900
O81	O8	0.681000	0.674500	0.077700
O91	O9	0.827300	0.696300	0.125900
O101	O10	0.788800	0.922300	0.158100
O111	O11	0.700300	0.848200	0.206300
O121	O12	0.637200	0.911000	0.117600
O131	O13	0.584400	0.767400	0.172300
O141	O14	0.545600	0.726700	0.068800
O151	O15	0.527300	0.830700	0.085500
O161	O16	0.479000	0.790700	0.965100
O171	O17	0.465200	0.902700	0.920000
O181	O18	0.512900	0.931900	0.041200
O191	O19	0.397600	0.865900	0.007000
O201	O20	0.500900	0.701200	0.887500
O211	O21	0.563700	0.646900	0.994000
O221	O22	0.427300	0.688800	0.975800
W61	W6	0.651060	0.691380	0.229930
W71	W7	0.592620	0.631830	0.078580
Co11	Co1	0.915750	0.657620	0.191530
W81	W8	0.629170	0.831440	0.251520
W91	W9	0.539770	0.923550	0.126420
Co21	Co2	0.412220	0.921750	0.831690
W101	W10	0.307120	0.837790	0.020470
Na11	Na1	0.543400	0.631400	0.824500
W111	W11	0.332070	0.685340	0.993140
O231	O23	0.612900	0.646500	0.161700
O241	O24	0.672100	0.760400	0.276900
O251	O25	0.566300	0.680600	0.257000
O261	O26	0.499700	0.612900	0.080900
O271	O27	0.570900	0.885300	0.200300
O281	O28	0.545400	0.807600	0.274600
O291	O29	0.667800	0.873500	0.313200
O301	O30	0.551900	0.993400	0.147200
O311	O31	0.444700	0.915300	0.130600
N11	N1	0.504400	0.908100	0.799800
N21	N2	0.355000	0.946000	0.746700
N31	N3	0.378000	0.837500	0.817500
O321	O32	0.307500	0.898900	0.077400
O331	O33	0.377500	0.806100	0.111300
O341	O34	0.233000	0.797600	0.048700
O351	O35	0.329300	0.765200	0.989200
N41	N4	0.518000	0.682800	0.749400
O361	O36	0.356900	0.613200	0.029500
O371	O37	0.396700	0.700300	0.093500
O381	O38	0.252000	0.689100	0.030700
W121	W12	0.470530	0.658160	0.259010
W131	W13	0.412340	0.600560	0.108030
W141	W14	0.447640	0.797490	0.280180
Co31	Co3	0.737100	0.924900	0.379200
W151	W15	0.359190	0.892590	0.157920
C11	C1	0.564900	0.935600	0.812100
N51	N5	0.503800	0.879800	0.748100
C21	C2	0.318000	0.990300	0.732400
N61	N6	0.349800	0.914600	0.697000
C31	C3	0.352300	0.801400	0.854500
N71	N7	0.380500	0.805500	0.767800
P21	P2	0.383300	0.745200	0.137200
W161	W16	0.197300	0.729820	0.077360
C41	C4	0.516000	0.744000	0.744000
N81	N8	0.484000	0.665200	0.691100
O391	O39	0.464400	0.620700	0.186300
O401	O40	0.466700	0.723600	0.311000
O411	O41	0.437700	0.741700	0.196500
O421	O42	0.367900	0.652500	0.245700
O431	O43	0.324800	0.609800	0.137800
O441	O44	0.423400	0.858800	0.224600
O451	O45	0.454400	0.832400	0.346800
O461	O46	0.348600	0.782800	0.266700
N91	N9	0.658700	0.915400	0.430800
N101	N10	0.704400	0.005100	0.328300
O471	O47	0.285200	0.849400	0.179800
O481	O48	0.340400	0.957500	0.187600
H11	H1	0.577800	0.957800	0.846500
N111	N11	0.607200	0.930900	0.774200
C51	C5	0.569200	0.890500	0.735800
H21	H2	0.307800	0.016600	0.759800
C61	C6	0.313100	0.944800	0.650700
H31	H3	0.347400	0.810700	0.892900
N121	N12	0.335000	0.750300	0.827800
C71	C7	0.355800	0.755000	0.774600
O491	O49	0.306100	0.730000	0.151100
O501	O50	0.197700	0.663000	0.126000
O511	O51	0.179200	0.773500	0.144800
H41	H4	0.543100	0.767700	0.772200
N131	N13	0.471000	0.763500	0.691500
C81	C8	0.453000	0.717000	0.658000
K11	K1	0.502200	0.583100	0.663700
W171	W17	0.276820	0.644660	0.192630
Co41	Co4	0.448210	0.856850	0.432370
W181	W18	0.252470	0.786680	0.216010
C91	C9	0.607900	0.874500	0.423900
C101	C10	0.631000	0.958900	0.461000
Co51	Co5	0.303500	0.024300	0.238000
H51	H5	0.586100	0.872700	0.705300
N141	N14	0.444100	0.876500	0.610800
H61	H6	0.301700	0.933100	0.610800
H71	H7	0.352600	0.725600	0.746700
H81	H8	0.424700	0.717600	0.619100
O521	O52	0.513200	0.593800	0.629100
O531	O53	0.241900	0.706400	0.235500
O541	O54	0.241400	0.587900	0.222200
N151	N15	0.550800	0.891900	0.443700
N161	N16	0.449300	0.879200	0.521000
N171	N17	0.405100	0.934200	0.397800
O551	O55	0.482500	0.784100	0.452300
H91	H9	0.612100	0.838600	0.407400
H101	H10	0.655300	0.992200	0.475300
N181	N18	0.566300	0.946300	0.466300
N191	N19	0.349400	0.994900	0.331400
C111	C11	0.436600	0.846900	0.564100
N201	N20	0.464300	0.932800	0.545100
C121	C12	0.363800	0.942600	0.343000
N211	N21	0.419700	0.986500	0.423600
H111	H11	0.522700	0.783900	0.477400
C131	C13	0.383600	0.023100	0.381700
H121	H12	0.424100	0.808400	0.560700
C141	C14	0.461000	0.927600	0.600200
H131	H13	0.347300	0.913100	0.316200
H141	H14	0.382300	0.062500	0.386600
H151	H15	0.469600	0.956900	0.628400
K21	K2	0.919300	0.921400	0.186700
W191	W19	0.830300	0.313760	0.505530
O561	O56	0.757600	0.260100	0.468700
O571	O57	0.776400	0.370400	0.449700
O581	O58	0.850300	0.293600	0.408900
O591	O59	0.909300	0.360900	0.511500
O601	O60	0.892200	0.251700	0.530400
W201	W20	0.752160	0.230070	0.387670
W211	W21	0.775430	0.371340	0.366850
P31	P3	0.925600	0.278800	0.395000
W221	W22	0.012730	0.368610	0.511560
W231	W23	0.986250	0.215450	0.537320
O611	O61	0.716200	0.304200	0.358900
O621	O62	0.780400	0.217000	0.316100
O631	O63	0.819000	0.174500	0.422300
O641	O64	0.672700	0.196300	0.374100
O651	O65	0.711200	0.422300	0.341900
O661	O66	0.799700	0.348200	0.293700
O671	O67	0.862800	0.411000	0.382400
O681	O68	0.915600	0.267400	0.327700
O691	O69	0.954400	0.226700	0.431200
O701	O70	0.972700	0.330700	0.414500
O711	O71	0.021000	0.290700	0.534900
O721	O72	0.034800	0.402700	0.580000
O731	O73	0.987100	0.431900	0.458800
O741	O74	0.102400	0.365900	0.493000
O751	O75	0.999100	0.201200	0.612500
O761	O76	0.936300	0.146900	0.506000
O771	O77	0.072700	0.188800	0.524200
W241	W24	0.848940	0.191380	0.270070
W251	W25	0.907380	0.131830	0.421420
Co61	Co6	0.584250	0.157620	0.308470
W261	W26	0.870830	0.331440	0.248480
W271	W27	0.960230	0.423550	0.373580
Co71	Co7	0.087780	0.421750	0.668310
W281	W28	0.192880	0.337790	0.479530
Na21	Na2	0.956600	0.131400	0.675500
W291	W29	0.167930	0.185340	0.506860
O781	O78	0.887100	0.146500	0.338300
O791	O79	0.827900	0.260400	0.223100
O801	O80	0.933700	0.180600	0.243000
O811	O81	0.000300	0.112900	0.419100
O821	O82	0.929100	0.385300	0.299700
O831	O83	0.954600	0.307600	0.225400
O841	O84	0.832200	0.373500	0.186800
O851	O85	0.948100	0.493400	0.352800
O861	O86	0.055300	0.415300	0.369400
N221	N22	0.995600	0.408100	0.700200
N231	N23	0.145000	0.446000	0.753300
N241	N24	0.122000	0.337500	0.682500
O871	O87	0.192500	0.398900	0.422600
O881	O88	0.122500	0.306100	0.388700
O891	O89	0.267000	0.297600	0.451300
O901	O90	0.170700	0.265200	0.510800
N251	N25	0.982000	0.182800	0.750600
O911	O91	0.143100	0.113200	0.470500
O921	O92	0.103300	0.200300	0.406500
O931	O93	0.248000	0.189100	0.469300
W301	W30	0.029470	0.158160	0.240990
W311	W31	0.087660	0.100560	0.391970
W321	W32	0.052360	0.297490	0.219820
Co81	Co8	0.762900	0.424900	0.120800
W331	W33	0.140810	0.392590	0.342080
C151	C15	0.935100	0.435600	0.687900
N261	N26	0.996200	0.379800	0.751900
C161	C16	0.182000	0.490300	0.767600
N271	N27	0.150200	0.414600	0.803000
C171	C17	0.147700	0.301400	0.645500
N281	N28	0.119500	0.305500	0.732200
P41	P4	0.116700	0.245200	0.362800
W341	W34	0.302700	0.229820	0.422640
C181	C18	0.984000	0.244000	0.756000
N291	N29	0.016000	0.165200	0.808900
O941	O94	0.035600	0.120700	0.313700
O951	O95	0.033300	0.223600	0.189000
O961	O96	0.062300	0.241700	0.303500
O971	O97	0.132100	0.152500	0.254300
O981	O98	0.175200	0.109800	0.362200
O991	O99	0.076600	0.358800	0.275400
O1001	O100	0.045600	0.332400	0.153200
O1011	O101	0.151400	0.282800	0.233300
N301	N30	0.841300	0.415400	0.069200
N311	N31	0.795600	0.505100	0.171700
O1021	O102	0.214800	0.349400	0.320200
O1031	O103	0.159600	0.457500	0.312400
H161	H16	0.922200	0.457800	0.653500
N321	N32	0.892800	0.430900	0.725800
C191	C19	0.930800	0.390500	0.764200
H171	H17	0.192200	0.516600	0.740200
C201	C20	0.186900	0.444800	0.849300
H181	H18	0.152600	0.310700	0.607100
N331	N33	0.165000	0.250300	0.672200
C211	C21	0.144200	0.255000	0.725400
O1041	O104	0.193900	0.230000	0.348900
O1051	O105	0.302300	0.163000	0.374000
O1061	O106	0.320800	0.273500	0.355200
H191	H19	0.956900	0.267700	0.727800
N341	N34	0.029000	0.263500	0.808500
C221	C22	0.047000	0.217000	0.842000
K31	K3	0.997800	0.083100	0.836300
W351	W35	0.223180	0.144660	0.307370
Co91	Co9	0.051790	0.356850	0.067630
W361	W36	0.247530	0.286680	0.283990
C231	C23	0.892100	0.374500	0.076100
C241	C24	0.869000	0.458900	0.039000
Co101	Co10	0.196500	0.524300	0.262000
H201	H20	0.913900	0.372700	0.794700
N351	N35	0.055900	0.376500	0.889200
H211	H21	0.198300	0.433100	0.889200
H221	H22	0.147400	0.225600	0.753300
H231	H23	0.075300	0.217600	0.880900
O1071	O107	0.986800	0.093800	0.870900
O1081	O108	0.258100	0.206400	0.264500
O1091	O109	0.258600	0.087900	0.277800
N361	N36	0.949200	0.391900	0.056300
N371	N37	0.050700	0.379200	0.979000
N381	N38	0.094900	0.434200	0.102200
O1101	O110	0.017500	0.284100	0.047700
H241	H24	0.887900	0.338600	0.092600
H251	H25	0.844700	0.492200	0.024700
N391	N39	0.933700	0.446300	0.033700
N401	N40	0.150600	0.494900	0.168600
C251	C25	0.063400	0.346900	0.935900
N411	N41	0.035700	0.432800	0.954900
C261	C26	0.136200	0.442600	0.157000
N421	N42	0.080300	0.486500	0.076400
H261	H26	0.977300	0.283900	0.022600
C271	C27	0.116400	0.523100	0.118300
H271	H27	0.075900	0.308400	0.939300
C281	C28	0.039000	0.427600	0.899800
H281	H28	0.152700	0.413100	0.183800
H291	H29	0.117700	0.562500	0.113400
H301	H30	0.030400	0.456900	0.871600
K41	K4	0.580700	0.421400	0.313300
W371	W37	0.330300	0.186240	0.005530
O1111	O111	0.257600	0.239900	0.968700
O1121	O112	0.276400	0.129600	0.949700
O1131	O113	0.350300	0.206400	0.908900
O1141	O114	0.409300	0.139100	0.011500
O1151	O115	0.392200	0.248300	0.030400
W381	W38	0.252160	0.269930	0.887670
W391	W39	0.275430	0.128660	0.866850
P51	P5	0.425600	0.221200	0.895000
W401	W40	0.512730	0.131390	0.011560
W411	W41	0.486250	0.284550	0.037320
O1161	O116	0.216200	0.195800	0.858900
O1171	O117	0.280400	0.283000	0.816100
O1181	O118	0.319000	0.325500	0.922300
O1191	O119	0.172700	0.303700	0.874100
O1201	O120	0.211200	0.077700	0.841900
O1211	O121	0.299700	0.151800	0.793700
O1221	O122	0.362800	0.089000	0.882400
O1231	O123	0.415600	0.232600	0.827700
O1241	O124	0.454400	0.273300	0.931200
O1251	O125	0.472700	0.169300	0.914500
O1261	O126	0.521000	0.209300	0.034900
O1271	O127	0.534800	0.097300	0.080000
O1281	O128	0.487100	0.068100	0.958800
O1291	O129	0.602400	0.134100	0.993000
O1301	O130	0.499100	0.298800	0.112500
O1311	O131	0.436300	0.353100	0.006000
O1321	O132	0.572700	0.311200	0.024200
W421	W42	0.348940	0.308620	0.770070
W431	W43	0.407380	0.368170	0.921420
Co111	Co11	0.084250	0.342380	0.808470
W441	W44	0.370830	0.168560	0.748480
W451	W45	0.460230	0.076450	0.873580
Co121	Co12	0.587780	0.078250	0.168310
W461	W46	0.692880	0.162210	0.979530
Na31	Na3	0.456600	0.368600	0.175500
W471	W47	0.667930	0.314660	0.006860
O1331	O133	0.387100	0.353500	0.838300
O1341	O134	0.327900	0.239600	0.723100
O1351	O135	0.433700	0.319400	0.743000
O1361	O136	0.500300	0.387100	0.919100
O1371	O137	0.429100	0.114700	0.799700
O1381	O138	0.454600	0.192400	0.725400
O1391	O139	0.332200	0.126500	0.686800
O1401	O140	0.448100	0.006600	0.852800
O1411	O141	0.555300	0.084700	0.869400
N431	N43	0.495600	0.091900	0.200200
N441	N44	0.645000	0.054000	0.253300
N451	N45	0.622000	0.162500	0.182500
O1421	O142	0.692500	0.101100	0.922600
O1431	O143	0.622500	0.193900	0.888700
O1441	O144	0.767000	0.202400	0.951300
O1451	O145	0.670700	0.234800	0.010800
N461	N46	0.482000	0.317200	0.250600
O1461	O146	0.643100	0.386800	0.970500
O1471	O147	0.603300	0.299700	0.906500
O1481	O148	0.748000	0.310900	0.969300
W481	W48	0.529470	0.341840	0.740990
W491	W49	0.587660	0.399440	0.891970
W501	W50	0.552360	0.202510	0.719820
Co131	Co13	0.262900	0.075100	0.620800
W511	W51	0.640810	0.107410	0.842080
C291	C29	0.435100	0.064400	0.187900
N471	N47	0.496200	0.120200	0.251900
C301	C30	0.682000	0.009700	0.267600
N481	N48	0.650200	0.085400	0.303000
C311	C31	0.647700	0.198600	0.145500
N491	N49	0.619500	0.194500	0.232200
P61	P6	0.616700	0.254800	0.862800
W521	W52	0.802700	0.270180	0.922640
C321	C32	0.484000	0.256000	0.256000
N501	N50	0.516000	0.334800	0.308900
O1491	O149	0.535600	0.379300	0.813700
O1501	O150	0.533300	0.276400	0.689000
O1511	O151	0.562300	0.258300	0.803500
O1521	O152	0.632100	0.347500	0.754300
O1531	O153	0.675200	0.390200	0.862200
O1541	O154	0.576600	0.141200	0.775400
O1551	O155	0.545600	0.167600	0.653200
O1561	O156	0.651400	0.217200	0.733300
N511	N51	0.341300	0.084600	0.569200
N521	N52	0.295600	0.994900	0.671700
O1571	O157	0.714800	0.150600	0.820200
O1581	O158	0.659600	0.042500	0.812400
H311	H31	0.422200	0.042200	0.153500
N531	N53	0.392800	0.069100	0.225800
C331	C33	0.430800	0.109500	0.264200
H321	H32	0.692200	0.983400	0.240200
C341	C34	0.686900	0.055200	0.349300
H331	H33	0.652600	0.189300	0.107100
N541	N54	0.665000	0.249700	0.172200
C351	C35	0.644200	0.245000	0.225400
O1591	O159	0.693900	0.270000	0.848900
O1601	O160	0.802300	0.337000	0.874000
O1611	O161	0.820800	0.226500	0.855200
H341	H34	0.456900	0.232300	0.227800
N551	N55	0.529000	0.236500	0.308500
C361	C36	0.547000	0.283000	0.342000
K51	K5	0.497800	0.416900	0.336300
W531	W53	0.723180	0.355340	0.807370
Co141	Co14	0.551790	0.143150	0.567630
W541	W54	0.747530	0.213320	0.783990
C371	C37	0.392100	0.125500	0.576100
C381	C38	0.369000	0.041100	0.539000
Co151	Co15	0.696500	0.975700	0.762000
H351	H35	0.413900	0.127300	0.294700
N561	N56	0.555900	0.123500	0.389200
H361	H36	0.698300	0.066900	0.389200
H371	H37	0.647400	0.274400	0.253300
H381	H38	0.575300	0.282400	0.380900
O1621	O162	0.486800	0.406200	0.370900
O1631	O163	0.758100	0.293600	0.764500
O1641	O164	0.758600	0.412100	0.777800
N571	N57	0.449200	0.108100	0.556300
N581	N58	0.550700	0.120800	0.479000
N591	N59	0.594900	0.065800	0.602200
O1651	O165	0.517500	0.215900	0.547700
H391	H39	0.387900	0.161400	0.592600
H401	H40	0.344700	0.007800	0.524700
N601	N60	0.433700	0.053700	0.533700
N611	N61	0.650600	0.005100	0.668600
C391	C39	0.563400	0.153100	0.435900
N621	N62	0.535700	0.067200	0.454900
C401	C40	0.636200	0.057400	0.657000
N631	N63	0.580300	0.013500	0.576400
H411	H41	0.477300	0.216100	0.522600
C411	C41	0.616400	0.976900	0.618300
H421	H42	0.575900	0.191600	0.439300
C421	C42	0.539000	0.072400	0.399800
H431	H43	0.652700	0.086900	0.683800
H441	H44	0.617700	0.937500	0.613400
H451	H45	0.530400	0.043100	0.371600
K61	K6	0.080700	0.078600	0.813300
W551	W55	0.169700	0.686240	0.494470
O1661	O166	0.242400	0.739900	0.531300
O1671	O167	0.223600	0.629600	0.550300
O1681	O168	0.149700	0.706400	0.591100
O1691	O169	0.090700	0.639100	0.488500
O1701	O170	0.107800	0.748300	0.469600
W561	W56	0.247840	0.769930	0.612330
W571	W57	0.224570	0.628660	0.633150
P71	P7	0.074400	0.721200	0.605000
W581	W58	0.987270	0.631390	0.488440
W591	W59	0.013750	0.784550	0.462680
O1711	O171	0.283800	0.695800	0.641100
O1721	O172	0.219600	0.783000	0.683900
O1731	O173	0.181000	0.825500	0.577700
O1741	O174	0.327300	0.803700	0.625900
O1751	O175	0.288800	0.577700	0.658100
O1761	O176	0.200300	0.651800	0.706300
O1771	O177	0.137200	0.589000	0.617600
O1781	O178	0.084400	0.732600	0.672300
O1791	O179	0.045600	0.773300	0.568800
O1801	O180	0.027300	0.669300	0.585500
O1811	O181	0.979000	0.709300	0.465100
O1821	O182	0.965200	0.597300	0.420000
O1831	O183	0.012900	0.568100	0.541200
O1841	O184	0.897600	0.634100	0.507000
O1851	O185	0.000900	0.798800	0.387500
O1861	O186	0.063700	0.853100	0.494000
O1871	O187	0.927300	0.811200	0.475800
W601	W60	0.151060	0.808620	0.729930
W611	W61	0.092620	0.868170	0.578580
Co161	Co16	0.415750	0.842380	0.691530
W621	W62	0.129170	0.668560	0.751520
W631	W63	0.039770	0.576450	0.626420
Co171	Co17	0.912220	0.578250	0.331690
W641	W64	0.807120	0.662210	0.520470
Na41	Na4	0.043400	0.868600	0.324500
W651	W65	0.832070	0.814660	0.493140
O1881	O188	0.112900	0.853500	0.661700
O1891	O189	0.172100	0.739600	0.776900
O1901	O190	0.066300	0.819400	0.757000
O1911	O191	0.999700	0.887100	0.580900
O1921	O192	0.070900	0.614700	0.700300
O1931	O193	0.045400	0.692400	0.774600
O1941	O194	0.167800	0.626500	0.813200
O1951	O195	0.051900	0.506600	0.647200
O1961	O196	0.944700	0.584700	0.630600
N641	N64	0.004400	0.591900	0.299800
N651	N65	0.855000	0.554000	0.246700
N661	N66	0.878000	0.662500	0.317500
O1971	O197	0.807500	0.601100	0.577400
O1981	O198	0.877500	0.693900	0.611300
O1991	O199	0.733000	0.702400	0.548700
O2001	O200	0.829300	0.734800	0.489200
N671	N67	0.018000	0.817200	0.249400
O2011	O201	0.856900	0.886800	0.529500
O2021	O202	0.896700	0.799700	0.593500
O2031	O203	0.752000	0.810900	0.530700
W661	W66	0.970530	0.841840	0.759010
W671	W67	0.912340	0.899440	0.608030
W681	W68	0.947640	0.702510	0.780180
Co181	Co18	0.237100	0.575100	0.879200
W691	W69	0.859190	0.607410	0.657920
C431	C43	0.064900	0.564400	0.312100
N681	N68	0.003800	0.620200	0.248100
C441	C44	0.818000	0.509700	0.232400
N691	N69	0.849800	0.585400	0.197000
C451	C45	0.852300	0.698600	0.354500
N701	N70	0.880500	0.694500	0.267800
P81	P8	0.883300	0.754800	0.637200
W701	W70	0.697300	0.770180	0.577360
C461	C46	0.016000	0.756000	0.244000
N711	N71	0.984000	0.834800	0.191100
O2041	O204	0.964400	0.879300	0.686300
O2051	O205	0.966700	0.776400	0.811000
O2061	O206	0.937700	0.758300	0.696500
O2071	O207	0.867900	0.847500	0.745700
O2081	O208	0.824800	0.890200	0.637800
O2091	O209	0.923400	0.641200	0.724600
O2101	O210	0.954400	0.667600	0.846800
O2111	O211	0.848600	0.717200	0.766700
N721	N72	0.158700	0.584600	0.930800
N731	N73	0.204400	0.494900	0.828300
O2121	O212	0.785200	0.650600	0.679800
O2131	O213	0.840400	0.542500	0.687600
H461	H46	0.077800	0.542200	0.346500
N741	N74	0.107200	0.569100	0.274200
C471	C47	0.069200	0.609500	0.235800
H471	H47	0.807800	0.483400	0.259800
C481	C48	0.813100	0.555200	0.150700
H481	H48	0.847400	0.689300	0.392900
N751	N75	0.835000	0.749700	0.327800
C491	C49	0.855800	0.745000	0.274600
O2141	O214	0.806100	0.770000	0.651100
O2151	O215	0.697700	0.837000	0.626000
O2161	O216	0.679200	0.726500	0.644800
H491	H49	0.043100	0.732300	0.272200
N761	N76	0.971000	0.736500	0.191500
C501	C50	0.953000	0.783000	0.158000
K71	K7	0.002200	0.916900	0.163700
W711	W71	0.776820	0.855340	0.692630
Co191	Co19	0.948210	0.643150	0.932370
W721	W72	0.752470	0.713320	0.716010
C511	C51	0.107900	0.625500	0.923900
C521	C52	0.131000	0.541100	0.961000
Co201	Co20	0.803500	0.475700	0.738000
H501	H50	0.086100	0.627300	0.205300
N771	N77	0.944100	0.623500	0.110800
H511	H51	0.801700	0.566900	0.110800
H521	H52	0.852600	0.774400	0.246700
H531	H53	0.924700	0.782400	0.119100
O2171	O217	0.013200	0.906200	0.129100
O2181	O218	0.741900	0.793600	0.735500
O2191	O219	0.741400	0.912100	0.722200
N781	N78	0.050800	0.608100	0.943700
N791	N79	0.949300	0.620800	0.021000
N801	N80	0.905100	0.565800	0.897800
O2201	O220	0.982500	0.715900	0.952300
H541	H54	0.112100	0.661400	0.907400
H551	H55	0.155300	0.507800	0.975300
N811	N81	0.066300	0.553700	0.966300
N821	N82	0.849400	0.505100	0.831400
C531	C53	0.936600	0.653100	0.064100
N831	N83	0.964300	0.567200	0.045100
C541	C54	0.863800	0.557400	0.843000
N841	N84	0.919700	0.513500	0.923600
H561	H56	0.022700	0.716100	0.977400
C551	C55	0.883600	0.476900	0.881700
H571	H57	0.924100	0.691600	0.060700
C561	C56	0.961000	0.572400	0.100200
H581	H58	0.847300	0.586900	0.816200
H591	H59	0.882300	0.437500	0.886600
H601	H60	0.969600	0.543100	0.128400
K81	K8	0.419300	0.578600	0.686700
Co211	Co21	0.500000	0.000000	0.500000
Co221	Co22	0.000000	0.500000	0.000000
