data_YOMHAK_clean_PM
_symmetry_space_group_name_H-M	'P1'
_cell_length_a	9.001000
_cell_length_b	11.966000
_cell_length_c	15.106000
_cell_angle_alpha	90.000000
_cell_angle_beta	99.660000
_cell_angle_gamma	90.000000
_symmetry_Int_Tables_number 1

loop_
_symmetry_equiv_pos_as_xyz
'x,y,z'

loop_
_atom_site_label
_atom_site_type_symbol
_atom_site_fract_x
_atom_site_fract_y
_atom_site_fract_z
Fe11	Fe1	0.149820	0.415980	0.032430
Na11	Na1	0.757060	0.469180	0.171190
O11	O1	0.761900	0.275600	0.108800
O21	O2	0.941300	0.394300	0.086250
O31	O3	0.218000	0.279300	0.113650
O41	O4	0.089100	0.523400	0.924950
O51	O5	0.379600	0.476500	0.063900
O61	O6	0.923000	0.563700	0.803830
O71	O7	0.381100	0.141000	0.145280
O81	O8	0.604800	0.496300	0.023360
N11	N1	0.978700	0.306800	0.931050
N21	N2	0.296400	0.315500	0.943730
C11	C1	0.056900	0.230900	0.875900
H11	H1	0.991500	0.215900	0.819300
H21	H2	0.078500	0.160500	0.907100
C21	C2	0.202300	0.282300	0.857900
H31	H3	0.256500	0.228800	0.827100
H41	H4	0.180300	0.347400	0.819600
C31	C3	0.885400	0.242100	0.984500
H51	H5	0.935400	0.172200	0.003500
H61	H6	0.789100	0.224800	0.947800
C41	C4	0.860000	0.308300	0.066400
C51	C5	0.318800	0.212000	0.093200
C61	C6	0.358300	0.218100	0.998900
H71	H7	0.467200	0.219200	0.004100
H81	H8	0.322400	0.150400	0.966900
C71	C7	0.888300	0.393000	0.875600
H91	H9	0.800000	0.409900	0.902100
H101	H10	0.853800	0.362500	0.816200
C81	C8	0.973300	0.500600	0.866300
C91	C9	0.418500	0.391700	0.928200
H111	H11	0.381300	0.441800	0.879000
H121	H12	0.500700	0.348500	0.911400
C101	C10	0.475900	0.459200	0.011500
Fe21	Fe2	0.649820	0.915980	0.032430
Na21	Na2	0.257060	0.969180	0.171190
O91	O9	0.261900	0.775600	0.108800
O101	O10	0.441300	0.894300	0.086250
O111	O11	0.718000	0.779300	0.113650
O121	O12	0.589100	0.023400	0.924950
O131	O13	0.879600	0.976500	0.063900
O141	O14	0.423000	0.063700	0.803830
O151	O15	0.881100	0.641000	0.145280
O161	O16	0.104800	0.996300	0.023360
N31	N3	0.478700	0.806800	0.931050
N41	N4	0.796400	0.815500	0.943730
C111	C11	0.556900	0.730900	0.875900
H131	H13	0.491500	0.715900	0.819300
H141	H14	0.578500	0.660500	0.907100
C121	C12	0.702300	0.782300	0.857900
H151	H15	0.756500	0.728800	0.827100
H161	H16	0.680300	0.847400	0.819600
C131	C13	0.385400	0.742100	0.984500
H171	H17	0.435400	0.672200	0.003500
H181	H18	0.289100	0.724800	0.947800
C141	C14	0.360000	0.808300	0.066400
C151	C15	0.818800	0.712000	0.093200
C161	C16	0.858300	0.718100	0.998900
H191	H19	0.967200	0.719200	0.004100
H201	H20	0.822400	0.650400	0.966900
C171	C17	0.388300	0.893000	0.875600
H211	H21	0.300000	0.909900	0.902100
H221	H22	0.353800	0.862500	0.816200
C181	C18	0.473300	0.000600	0.866300
C191	C19	0.918500	0.891700	0.928200
H231	H23	0.881300	0.941800	0.879000
H241	H24	0.000700	0.848500	0.911400
C201	C20	0.975900	0.959200	0.011500
Fe31	Fe3	0.149820	0.584020	0.532430
Na31	Na3	0.757060	0.530820	0.671190
O171	O17	0.761900	0.724400	0.608800
O181	O18	0.941300	0.605700	0.586250
O191	O19	0.218000	0.720700	0.613650
O201	O20	0.089100	0.476600	0.424950
O211	O21	0.379600	0.523500	0.563900
O221	O22	0.923000	0.436300	0.303830
O231	O23	0.381100	0.859000	0.645280
O241	O24	0.604800	0.503700	0.523360
N51	N5	0.978700	0.693200	0.431050
N61	N6	0.296400	0.684500	0.443730
C211	C21	0.056900	0.769100	0.375900
H251	H25	0.991500	0.784100	0.319300
H261	H26	0.078500	0.839500	0.407100
C221	C22	0.202300	0.717700	0.357900
H271	H27	0.256500	0.771200	0.327100
H281	H28	0.180300	0.652600	0.319600
C231	C23	0.885400	0.757900	0.484500
H291	H29	0.935400	0.827800	0.503500
H301	H30	0.789100	0.775200	0.447800
C241	C24	0.860000	0.691700	0.566400
C251	C25	0.318800	0.788000	0.593200
C261	C26	0.358300	0.781900	0.498900
H311	H31	0.467200	0.780800	0.504100
H321	H32	0.322400	0.849600	0.466900
C271	C27	0.888300	0.607000	0.375600
H331	H33	0.800000	0.590100	0.402100
H341	H34	0.853800	0.637500	0.316200
C281	C28	0.973300	0.499400	0.366300
C291	C29	0.418500	0.608300	0.428200
H351	H35	0.381300	0.558200	0.379000
H361	H36	0.500700	0.651500	0.411400
C301	C30	0.475900	0.540800	0.511500
Fe41	Fe4	0.649820	0.084020	0.532430
Na41	Na4	0.257060	0.030820	0.671190
O251	O25	0.261900	0.224400	0.608800
O261	O26	0.441300	0.105700	0.586250
O271	O27	0.718000	0.220700	0.613650
O281	O28	0.589100	0.976600	0.424950
O291	O29	0.879600	0.023500	0.563900
O301	O30	0.423000	0.936300	0.303830
O311	O31	0.881100	0.359000	0.645280
O321	O32	0.104800	0.003700	0.523360
N71	N7	0.478700	0.193200	0.431050
N81	N8	0.796400	0.184500	0.443730
C311	C31	0.556900	0.269100	0.375900
H371	H37	0.491500	0.284100	0.319300
H381	H38	0.578500	0.339500	0.407100
C321	C32	0.702300	0.217700	0.357900
H391	H39	0.756500	0.271200	0.327100
H401	H40	0.680300	0.152600	0.319600
C331	C33	0.385400	0.257900	0.484500
H411	H41	0.435400	0.327800	0.503500
H421	H42	0.289100	0.275200	0.447800
C341	C34	0.360000	0.191700	0.566400
C351	C35	0.818800	0.288000	0.593200
C361	C36	0.858300	0.281900	0.498900
H431	H43	0.967200	0.280800	0.504100
H441	H44	0.822400	0.349600	0.466900
C371	C37	0.388300	0.107000	0.375600
H451	H45	0.300000	0.090100	0.402100
H461	H46	0.353800	0.137500	0.316200
C381	C38	0.473300	0.999400	0.366300
C391	C39	0.918500	0.108300	0.428200
H471	H47	0.881300	0.058200	0.379000
H481	H48	0.000700	0.151500	0.411400
C401	C40	0.975900	0.040800	0.511500
