data_YOMVIG01_clean_PM
_symmetry_space_group_name_H-M	'P1'
_cell_length_a	14.710000
_cell_length_b	13.074000
_cell_length_c	15.261000
_cell_angle_alpha	90.000000
_cell_angle_beta	111.040000
_cell_angle_gamma	90.000000
_symmetry_Int_Tables_number 1

loop_
_symmetry_equiv_pos_as_xyz
'x,y,z'

loop_
_atom_site_label
_atom_site_type_symbol
_atom_site_fract_x
_atom_site_fract_y
_atom_site_fract_z
Al11	Al1	0.250260	0.629050	0.581980
Al21	Al2	0.083570	0.395270	0.663270
Al31	Al3	0.875620	0.690700	0.623200
P11	P1	0.092020	0.634580	0.670580
P21	P2	0.245830	0.388310	0.578980
P31	P3	0.122780	0.685080	0.371940
O11	O1	0.063700	0.526600	0.635700
O21	O2	0.279500	0.494400	0.612700
O31	O3	0.172900	0.348300	0.620900
O41	O4	0.161500	0.679300	0.629300
O51	O5	0.001300	0.702400	0.640600
O61	O6	0.208500	0.643500	0.454200
O71	O7	0.121200	0.626700	0.285600
O81	O8	0.335100	0.319700	0.608900
O91	O9	0.197800	0.387800	0.472600
O101	O10	0.135900	0.799700	0.362400
O111	O11	0.140100	0.631600	0.777000
O121	O12	0.027600	0.670500	0.388100
Al41	Al4	0.750260	0.129050	0.581980
Al51	Al5	0.583570	0.895270	0.663270
Al61	Al6	0.375620	0.190700	0.623200
P41	P4	0.592020	0.134580	0.670580
P51	P5	0.745830	0.888310	0.578980
P61	P6	0.622780	0.185080	0.371940
O131	O13	0.563700	0.026600	0.635700
O141	O14	0.779500	0.994400	0.612700
O151	O15	0.672900	0.848300	0.620900
O161	O16	0.661500	0.179300	0.629300
O171	O17	0.501300	0.202400	0.640600
O181	O18	0.708500	0.143500	0.454200
O191	O19	0.621200	0.126700	0.285600
O201	O20	0.835100	0.819700	0.608900
O211	O21	0.697800	0.887800	0.472600
O221	O22	0.635900	0.299700	0.362400
O231	O23	0.640100	0.131600	0.777000
O241	O24	0.527600	0.170500	0.388100
Al71	Al7	0.749740	0.629050	0.918020
Al81	Al8	0.916430	0.395270	0.836730
Al91	Al9	0.124380	0.690700	0.876800
P71	P7	0.907980	0.634580	0.829420
P81	P8	0.754170	0.388310	0.921020
P91	P9	0.877220	0.685080	0.128060
O251	O25	0.936300	0.526600	0.864300
O261	O26	0.720500	0.494400	0.887300
O271	O27	0.827100	0.348300	0.879100
O281	O28	0.838500	0.679300	0.870700
O291	O29	0.998700	0.702400	0.859400
O301	O30	0.791500	0.643500	0.045800
O311	O31	0.878800	0.626700	0.214400
O321	O32	0.664900	0.319700	0.891100
O331	O33	0.802200	0.387800	0.027400
O341	O34	0.864100	0.799700	0.137600
O351	O35	0.859900	0.631600	0.723000
O361	O36	0.972400	0.670500	0.111900
Al101	Al10	0.249740	0.129050	0.918020
Al111	Al11	0.416430	0.895270	0.836730
Al121	Al12	0.624380	0.190700	0.876800
P101	P10	0.407980	0.134580	0.829420
P111	P11	0.254170	0.888310	0.921020
P121	P12	0.377220	0.185080	0.128060
O371	O37	0.436300	0.026600	0.864300
O381	O38	0.220500	0.994400	0.887300
O391	O39	0.327100	0.848300	0.879100
O401	O40	0.338500	0.179300	0.870700
O411	O41	0.498700	0.202400	0.859400
O421	O42	0.291500	0.143500	0.045800
O431	O43	0.378800	0.126700	0.214400
O441	O44	0.164900	0.819700	0.891100
O451	O45	0.302200	0.887800	0.027400
O461	O46	0.364100	0.299700	0.137600
O471	O47	0.359900	0.131600	0.723000
O481	O48	0.472400	0.170500	0.111900
Al131	Al13	0.749740	0.370950	0.418020
Al141	Al14	0.916430	0.604730	0.336730
Al151	Al15	0.124380	0.309300	0.376800
P131	P13	0.907980	0.365420	0.329420
P141	P14	0.754170	0.611690	0.421020
P151	P15	0.877220	0.314920	0.628060
O491	O49	0.936300	0.473400	0.364300
O501	O50	0.720500	0.505600	0.387300
O511	O51	0.827100	0.651700	0.379100
O521	O52	0.838500	0.320700	0.370700
O531	O53	0.998700	0.297600	0.359400
O541	O54	0.791500	0.356500	0.545800
O551	O55	0.878800	0.373300	0.714400
O561	O56	0.664900	0.680300	0.391100
O571	O57	0.802200	0.612200	0.527400
O581	O58	0.864100	0.200300	0.637600
O591	O59	0.859900	0.368400	0.223000
O601	O60	0.972400	0.329500	0.611900
Al161	Al16	0.249740	0.870950	0.418020
Al171	Al17	0.416430	0.104730	0.336730
Al181	Al18	0.624380	0.809300	0.376800
P161	P16	0.407980	0.865420	0.329420
P171	P17	0.254170	0.111690	0.421020
P181	P18	0.377220	0.814920	0.628060
O611	O61	0.436300	0.973400	0.364300
O621	O62	0.220500	0.005600	0.387300
O631	O63	0.327100	0.151700	0.379100
O641	O64	0.338500	0.820700	0.370700
O651	O65	0.498700	0.797600	0.359400
O661	O66	0.291500	0.856500	0.545800
O671	O67	0.378800	0.873300	0.714400
O681	O68	0.164900	0.180300	0.391100
O691	O69	0.302200	0.112200	0.527400
O701	O70	0.364100	0.700300	0.637600
O711	O71	0.359900	0.868400	0.223000
O721	O72	0.472400	0.829500	0.611900
Al191	Al19	0.250260	0.370950	0.081980
Al201	Al20	0.083570	0.604730	0.163270
Al211	Al21	0.875620	0.309300	0.123200
P191	P19	0.092020	0.365420	0.170580
P201	P20	0.245830	0.611690	0.078980
P211	P21	0.122780	0.314920	0.871940
O731	O73	0.063700	0.473400	0.135700
O741	O74	0.279500	0.505600	0.112700
O751	O75	0.172900	0.651700	0.120900
O761	O76	0.161500	0.320700	0.129300
O771	O77	0.001300	0.297600	0.140600
O781	O78	0.208500	0.356500	0.954200
O791	O79	0.121200	0.373300	0.785600
O801	O80	0.335100	0.680300	0.108900
O811	O81	0.197800	0.612200	0.972600
O821	O82	0.135900	0.200300	0.862400
O831	O83	0.140100	0.368400	0.277000
O841	O84	0.027600	0.329500	0.888100
Al221	Al22	0.750260	0.870950	0.081980
Al231	Al23	0.583570	0.104730	0.163270
Al241	Al24	0.375620	0.809300	0.123200
P221	P22	0.592020	0.865420	0.170580
P231	P23	0.745830	0.111690	0.078980
P241	P24	0.622780	0.814920	0.871940
O851	O85	0.563700	0.973400	0.135700
O861	O86	0.779500	0.005600	0.112700
O871	O87	0.672900	0.151700	0.120900
O881	O88	0.661500	0.820700	0.129300
O891	O89	0.501300	0.797600	0.140600
O901	O90	0.708500	0.856500	0.954200
O911	O91	0.621200	0.873300	0.785600
O921	O92	0.835100	0.180300	0.108900
O931	O93	0.697800	0.112200	0.972600
O941	O94	0.635900	0.700300	0.862400
O951	O95	0.640100	0.868400	0.277000
O961	O96	0.527600	0.829500	0.888100
