data_YONNAR_clean_PM
_symmetry_space_group_name_H-M	'P1'
_cell_length_a	20.130800
_cell_length_b	27.409900
_cell_length_c	45.333800
_cell_angle_alpha	90.000000
_cell_angle_beta	90.000000
_cell_angle_gamma	90.000000
_symmetry_Int_Tables_number 1

loop_
_symmetry_equiv_pos_as_xyz
'x,y,z'

loop_
_atom_site_label
_atom_site_type_symbol
_atom_site_fract_x
_atom_site_fract_y
_atom_site_fract_z
Zn11	Zn1	0.686360	0.249030	0.590190
Zn21	Zn2	0.728980	0.128980	0.584010
Zn31	Zn3	0.740380	0.186390	0.647210
Zn41	Zn4	0.025360	0.680000	0.650810
Zn51	Zn5	0.459180	0.787520	0.584840
Zn61	Zn6	0.576080	0.866580	0.587030
Zn71	Zn7	0.090780	0.750940	0.914830
Zn81	Zn8	0.568420	0.871870	0.917030
Zn91	Zn9	0.543950	0.811500	0.855990
Zn101	Zn10	0.252580	0.323840	0.850810
Zn111	Zn11	0.327250	0.314170	0.917490
Zn121	Zn12	0.670610	0.188580	0.915280
Zn131	Zn13	0.186360	0.750970	0.409810
Zn141	Zn14	0.228980	0.871020	0.415990
Zn151	Zn15	0.240380	0.813610	0.352790
Zn161	Zn16	0.525360	0.320000	0.349190
Zn171	Zn17	0.959180	0.212480	0.415160
Zn181	Zn18	0.076080	0.133420	0.412970
Zn191	Zn19	0.590780	0.249060	0.085170
Zn201	Zn20	0.068420	0.128130	0.082970
Zn211	Zn21	0.043950	0.188500	0.144010
Zn221	Zn22	0.752580	0.676160	0.149190
Zn231	Zn23	0.827250	0.685830	0.082510
Zn241	Zn24	0.170610	0.811420	0.084720
Zn251	Zn25	0.686360	0.749030	0.409810
Zn261	Zn26	0.728980	0.628980	0.415990
Zn271	Zn27	0.740380	0.686390	0.352790
Zn281	Zn28	0.025360	0.180000	0.349190
Zn291	Zn29	0.459180	0.287520	0.415160
Zn301	Zn30	0.576080	0.366580	0.412970
Zn311	Zn31	0.090780	0.250940	0.085170
Zn321	Zn32	0.568420	0.371870	0.082970
Zn331	Zn33	0.543950	0.311500	0.144010
Zn341	Zn34	0.252580	0.823840	0.149190
Zn351	Zn35	0.327250	0.814170	0.082510
Zn361	Zn36	0.670610	0.688580	0.084720
Zn371	Zn37	0.186360	0.250970	0.590190
Zn381	Zn38	0.228980	0.371020	0.584010
Zn391	Zn39	0.240380	0.313610	0.647210
Zn401	Zn40	0.525360	0.820000	0.650810
Zn411	Zn41	0.959180	0.712480	0.584840
Zn421	Zn42	0.076080	0.633420	0.587030
Zn431	Zn43	0.590780	0.749060	0.914830
Zn441	Zn44	0.068420	0.628130	0.917030
Zn451	Zn45	0.043950	0.688500	0.855990
Zn461	Zn46	0.752580	0.176160	0.850810
Zn471	Zn47	0.827250	0.185830	0.917490
Zn481	Zn48	0.170610	0.311420	0.915280
H11	H1	0.787600	0.199300	0.599800
H21	H2	0.382600	0.785200	0.798700
H31	H3	0.289500	0.762800	0.875600
H41	H4	0.190600	0.744500	0.799600
H51	H5	0.178900	0.748900	0.702100
H61	H6	0.266300	0.756900	0.623100
H71	H7	0.375100	0.774400	0.696300
H81	H8	0.697300	0.061700	0.699900
H91	H9	0.657300	0.000600	0.621700
H101	H10	0.617700	0.928400	0.696600
H111	H11	0.603500	0.925900	0.798800
H121	H12	0.652700	0.992700	0.874300
H131	H13	0.700700	0.054100	0.797200
H141	H14	0.589000	0.233700	0.704900
H151	H15	0.490800	0.253700	0.628400
H161	H16	0.401800	0.281700	0.705800
H171	H17	0.414100	0.293700	0.805900
H181	H18	0.508400	0.262700	0.881200
H191	H19	0.590600	0.227200	0.804600
H201	H20	0.311400	0.160500	0.952400
H211	H21	0.180100	0.235500	0.000800
H221	H22	0.236000	0.101100	0.026100
H231	H23	0.311300	0.978400	0.025300
H241	H24	0.430300	0.867100	0.005000
H251	H25	0.424600	0.984100	0.952000
H261	H26	0.567700	0.786600	0.603800
H271	H27	0.484100	0.963800	0.530800
H281	H28	0.364900	0.852800	0.509200
H291	H29	0.368900	0.973200	0.458800
H301	H30	0.469200	0.145800	0.459300
H311	H31	0.592300	0.231900	0.505100
H321	H32	0.561500	0.094300	0.530900
H331	H33	0.998100	0.693700	0.903800
H341	H34	0.247900	0.368100	0.898000
H351	H35	0.287600	0.800700	0.400200
H361	H36	0.882600	0.214800	0.201300
H371	H37	0.789500	0.237200	0.124400
H381	H38	0.690600	0.255500	0.200400
H391	H39	0.678900	0.251100	0.297900
H401	H40	0.766300	0.243100	0.376900
H411	H41	0.875100	0.225600	0.303700
H421	H42	0.197300	0.938300	0.300100
H431	H43	0.157300	0.999400	0.378300
H441	H44	0.117700	0.071600	0.303400
H451	H45	0.103500	0.074100	0.201200
H461	H46	0.152700	0.007300	0.125700
H471	H47	0.200700	0.945900	0.202800
H481	H48	0.089000	0.766300	0.295100
H491	H49	0.990800	0.746300	0.371600
H501	H50	0.901800	0.718300	0.294200
H511	H51	0.914100	0.706300	0.194100
H521	H52	0.008400	0.737300	0.118800
H531	H53	0.090600	0.772800	0.195400
H541	H54	0.811400	0.839500	0.047600
H551	H55	0.680100	0.764500	0.999200
H561	H56	0.736000	0.898900	0.973900
H571	H57	0.811300	0.021600	0.974700
H581	H58	0.930300	0.132900	0.995000
H591	H59	0.924600	0.015900	0.048000
H601	H60	0.067700	0.213400	0.396200
H611	H61	0.984100	0.036200	0.469200
H621	H62	0.864900	0.147200	0.490800
H631	H63	0.868900	0.026800	0.541200
H641	H64	0.969200	0.854200	0.540700
H651	H65	0.092300	0.768100	0.494900
H661	H66	0.061500	0.905700	0.469100
H671	H67	0.498100	0.306300	0.096200
H681	H68	0.747900	0.631900	0.102000
H691	H69	0.787600	0.699300	0.400200
H701	H70	0.382600	0.285200	0.201300
H711	H71	0.289500	0.262800	0.124400
H721	H72	0.190600	0.244500	0.200400
H731	H73	0.178900	0.248900	0.297900
H741	H74	0.266300	0.256900	0.376900
H751	H75	0.375100	0.274400	0.303700
H761	H76	0.697300	0.561700	0.300100
H771	H77	0.657300	0.500600	0.378300
H781	H78	0.617700	0.428400	0.303400
H791	H79	0.603500	0.425900	0.201200
H801	H80	0.652700	0.492700	0.125700
H811	H81	0.700700	0.554100	0.202800
H821	H82	0.589000	0.733700	0.295100
H831	H83	0.490800	0.753700	0.371600
H841	H84	0.401800	0.781700	0.294200
H851	H85	0.414100	0.793700	0.194100
H861	H86	0.508400	0.762700	0.118800
H871	H87	0.590600	0.727200	0.195400
H881	H88	0.311400	0.660500	0.047600
H891	H89	0.180100	0.735500	0.999200
H901	H90	0.236000	0.601100	0.973900
H911	H91	0.311300	0.478400	0.974700
H921	H92	0.430300	0.367100	0.995000
H931	H93	0.424600	0.484100	0.048000
H941	H94	0.567700	0.286600	0.396200
H951	H95	0.484100	0.463800	0.469200
H961	H96	0.364900	0.352800	0.490800
H971	H97	0.368900	0.473200	0.541200
H981	H98	0.469200	0.645800	0.540700
H991	H99	0.592300	0.731900	0.494900
H1001	H100	0.561500	0.594300	0.469100
H1011	H101	0.998100	0.193700	0.096200
H1021	H102	0.247900	0.868100	0.102000
H1031	H103	0.287600	0.300700	0.599800
H1041	H104	0.882600	0.714800	0.798700
H1051	H105	0.789500	0.737200	0.875600
H1061	H106	0.690600	0.755500	0.799600
H1071	H107	0.678900	0.751100	0.702100
H1081	H108	0.766300	0.743100	0.623100
H1091	H109	0.875100	0.725600	0.696300
H1101	H110	0.197300	0.438300	0.699900
H1111	H111	0.157300	0.499400	0.621700
H1121	H112	0.117700	0.571600	0.696600
H1131	H113	0.103500	0.574100	0.798800
H1141	H114	0.152700	0.507300	0.874300
H1151	H115	0.200700	0.445900	0.797200
H1161	H116	0.089000	0.266300	0.704900
H1171	H117	0.990800	0.246300	0.628400
H1181	H118	0.901800	0.218300	0.705800
H1191	H119	0.914100	0.206300	0.805900
H1201	H120	0.008400	0.237300	0.881200
H1211	H121	0.090600	0.272800	0.804600
H1221	H122	0.811400	0.339500	0.952400
H1231	H123	0.680100	0.264500	0.000800
H1241	H124	0.736000	0.398900	0.026100
H1251	H125	0.811300	0.521600	0.025300
H1261	H126	0.930300	0.632900	0.005000
H1271	H127	0.924600	0.515900	0.952000
H1281	H128	0.067700	0.713400	0.603800
H1291	H129	0.984100	0.536200	0.530800
H1301	H130	0.864900	0.647200	0.509200
H1311	H131	0.868900	0.526800	0.458800
H1321	H132	0.969200	0.354200	0.459300
H1331	H133	0.092300	0.268100	0.505100
H1341	H134	0.061500	0.405700	0.530900
H1351	H135	0.498100	0.806300	0.903800
H1361	H136	0.747900	0.131900	0.898000
C11	C1	0.286500	0.764700	0.793870
C21	C2	0.344600	0.776700	0.809110
C31	C3	0.345900	0.775900	0.839340
C41	C4	0.288700	0.763200	0.855100
C51	C5	0.230700	0.751000	0.840090
C61	C6	0.229500	0.752200	0.809640
C71	C7	0.408000	0.789300	0.855680
C81	C8	0.169500	0.734700	0.856190
C91	C9	0.276800	0.762900	0.704690
C101	C10	0.216600	0.753800	0.690650
C111	C11	0.211000	0.751800	0.660500
C121	C12	0.268700	0.758200	0.643520
C131	C13	0.329000	0.766300	0.657000
C141	C14	0.334100	0.768800	0.687460
C151	C15	0.145700	0.740300	0.645940
C161	C16	0.390700	0.771100	0.638790
C171	C17	0.283700	0.767200	0.761900
C181	C18	0.281100	0.764700	0.735840
C191	C19	0.655500	0.995000	0.703340
C201	C20	0.680400	0.035900	0.688970
C211	C21	0.680200	0.038400	0.658780
C221	C22	0.656600	0.999000	0.642230
C231	C23	0.632600	0.958000	0.655920
C241	C24	0.633000	0.956200	0.687050
C251	C25	0.704800	0.082800	0.642920
C261	C26	0.609100	0.914200	0.639120
C271	C27	0.651700	0.990600	0.792600
C281	C28	0.623300	0.951900	0.808560
C291	C29	0.625300	0.953100	0.839230
C301	C30	0.652900	0.992200	0.853780
C311	C31	0.680300	0.030200	0.838760
C321	C32	0.680700	0.028900	0.807720
C331	C33	0.594400	0.910600	0.856570
C341	C34	0.710000	0.074000	0.854690
C351	C35	0.653200	0.992900	0.734570
C361	C36	0.651100	0.990400	0.761150
C371	C37	0.495700	0.258100	0.710450
C381	C38	0.551000	0.243300	0.694830
C391	C39	0.550200	0.242600	0.664040
C401	C40	0.491900	0.255100	0.648860
C411	C41	0.435600	0.269400	0.664510
C421	C42	0.438800	0.271300	0.695230
C431	C43	0.611800	0.226100	0.647330
C441	C44	0.373000	0.283700	0.648550
C451	C45	0.501200	0.262000	0.799830
C461	C46	0.450800	0.281300	0.815800
C471	C47	0.451600	0.283200	0.846550
C481	C48	0.506100	0.262000	0.860720
C491	C49	0.556000	0.240400	0.845170
C501	C50	0.555400	0.240800	0.815100
C511	C51	0.397500	0.304900	0.863360
C521	C52	0.612000	0.216500	0.861460
C531	C53	0.497300	0.260000	0.741550
C541	C54	0.499000	0.260100	0.768220
C551	C55	0.279700	0.122900	0.987580
C561	C56	0.283200	0.162000	0.968570
C571	C57	0.246400	0.202800	0.973050
C581	C58	0.205300	0.207500	0.997910
C591	C59	0.203200	0.169000	0.018340
C601	C60	0.238800	0.127000	0.012940
C611	C61	0.248100	0.245700	0.950940
C621	C62	0.160200	0.173400	0.045250
C631	C63	0.364500	0.990100	0.988110
C641	C64	0.342400	0.964300	0.012710
C651	C65	0.366500	0.917900	0.018660
C661	C66	0.412700	0.897600	0.000510
C671	C67	0.433800	0.922000	0.975320
C681	C68	0.410300	0.967900	0.968860
C691	C69	0.339100	0.889900	0.044240
C701	C70	0.482700	0.896900	0.955390
C711	C71	0.314000	0.077800	0.983580
C721	C72	0.338800	0.038700	0.983420
C731	C73	0.428300	0.977700	0.494100
C741	C74	0.452500	0.950400	0.518250
C751	C75	0.429000	0.903700	0.523210
C761	C76	0.382400	0.883400	0.504920
C771	C77	0.361400	0.908400	0.480000
C781	C78	0.384100	0.956000	0.475160
C791	C79	0.457900	0.876400	0.549280
C801	C80	0.312500	0.885200	0.459530
C811	C81	0.509700	0.112200	0.494940
C821	C82	0.498000	0.150500	0.475090
C831	C83	0.528400	0.194900	0.478720
C841	C84	0.571500	0.201900	0.502560
C851	C85	0.583200	0.164500	0.522340
C861	C86	0.552700	0.119800	0.517930
C871	C87	0.515200	0.236600	0.458210
C881	C88	0.629500	0.172600	0.548080
C891	C89	0.453900	0.025800	0.490600
C901	C90	0.477400	0.065400	0.491440
C911	C91	0.786500	0.235300	0.206130
C921	C92	0.844600	0.223300	0.190890
C931	C93	0.845900	0.224100	0.160660
C941	C94	0.788700	0.236800	0.144900
C951	C95	0.730700	0.249000	0.159910
C961	C96	0.729500	0.247800	0.190360
C971	C97	0.908000	0.210700	0.144320
C981	C98	0.669500	0.265300	0.143810
C991	C99	0.776800	0.237100	0.295310
C1001	C100	0.716600	0.246200	0.309350
C1011	C101	0.711000	0.248200	0.339500
C1021	C102	0.768700	0.241800	0.356480
C1031	C103	0.829000	0.233700	0.343000
C1041	C104	0.834100	0.231200	0.312540
C1051	C105	0.645700	0.259700	0.354060
C1061	C106	0.890700	0.228900	0.361210
C1071	C107	0.783700	0.232800	0.238100
C1081	C108	0.781100	0.235300	0.264160
C1091	C109	0.155500	0.005000	0.296660
C1101	C110	0.180400	0.964100	0.311030
C1111	C111	0.180200	0.961600	0.341220
C1121	C112	0.156600	0.001000	0.357770
C1131	C113	0.132600	0.042000	0.344080
C1141	C114	0.133000	0.043800	0.312950
C1151	C115	0.204800	0.917200	0.357080
C1161	C116	0.109100	0.085800	0.360880
C1171	C117	0.151700	0.009400	0.207400
C1181	C118	0.123300	0.048100	0.191440
C1191	C119	0.125300	0.046900	0.160770
C1201	C120	0.152900	0.007800	0.146220
C1211	C121	0.180300	0.969800	0.161240
C1221	C122	0.180700	0.971100	0.192280
C1231	C123	0.094400	0.089400	0.143430
C1241	C124	0.210000	0.926000	0.145310
C1251	C125	0.153200	0.007100	0.265430
C1261	C126	0.151100	0.009600	0.238850
C1271	C127	0.995700	0.741900	0.289550
C1281	C128	0.051000	0.756700	0.305170
C1291	C129	0.050200	0.757400	0.335960
C1301	C130	0.991900	0.744900	0.351140
C1311	C131	0.935600	0.730600	0.335490
C1321	C132	0.938800	0.728700	0.304770
C1331	C133	0.111800	0.773900	0.352670
C1341	C134	0.873000	0.716300	0.351450
C1351	C135	0.001200	0.738000	0.200170
C1361	C136	0.950800	0.718700	0.184200
C1371	C137	0.951600	0.716800	0.153450
C1381	C138	0.006100	0.738000	0.139280
C1391	C139	0.056000	0.759600	0.154830
C1401	C140	0.055400	0.759200	0.184900
C1411	C141	0.897500	0.695100	0.136640
C1421	C142	0.112000	0.783500	0.138540
C1431	C143	0.997300	0.740000	0.258450
C1441	C144	0.999000	0.739900	0.231780
C1451	C145	0.779700	0.877100	0.012420
C1461	C146	0.783200	0.838000	0.031430
C1471	C147	0.746400	0.797200	0.026950
C1481	C148	0.705300	0.792500	0.002090
C1491	C149	0.703200	0.831000	0.981660
C1501	C150	0.738800	0.873000	0.987060
C1511	C151	0.748100	0.754300	0.049060
C1521	C152	0.660200	0.826600	0.954750
C1531	C153	0.864500	0.009900	0.011890
C1541	C154	0.842400	0.035700	0.987290
C1551	C155	0.866500	0.082100	0.981340
C1561	C156	0.912700	0.102400	0.999490
C1571	C157	0.933800	0.078000	0.024680
C1581	C158	0.910300	0.032100	0.031140
C1591	C159	0.839100	0.110100	0.955760
C1601	C160	0.982700	0.103100	0.044610
C1611	C161	0.814000	0.922200	0.016420
C1621	C162	0.838800	0.961300	0.016580
C1631	C163	0.928300	0.022300	0.505900
C1641	C164	0.952500	0.049600	0.481750
C1651	C165	0.929000	0.096300	0.476790
C1661	C166	0.882400	0.116600	0.495080
C1671	C167	0.861400	0.091600	0.520000
C1681	C168	0.884100	0.044000	0.524840
C1691	C169	0.957900	0.123600	0.450720
C1701	C170	0.812500	0.114800	0.540470
C1711	C171	0.009700	0.887800	0.505060
C1721	C172	0.998000	0.849500	0.524910
C1731	C173	0.028400	0.805100	0.521280
C1741	C174	0.071500	0.798100	0.497440
C1751	C175	0.083200	0.835500	0.477660
C1761	C176	0.052700	0.880200	0.482070
C1771	C177	0.015200	0.763400	0.541790
C1781	C178	0.129500	0.827400	0.451920
C1791	C179	0.953900	0.974200	0.509400
C1801	C180	0.977400	0.934600	0.508560
C1811	C181	0.286500	0.264700	0.206130
C1821	C182	0.344600	0.276700	0.190890
C1831	C183	0.345900	0.275900	0.160660
C1841	C184	0.288700	0.263200	0.144900
C1851	C185	0.230700	0.251000	0.159910
C1861	C186	0.229500	0.252200	0.190360
C1871	C187	0.408000	0.289300	0.144320
C1881	C188	0.169500	0.234700	0.143810
C1891	C189	0.276800	0.262900	0.295310
C1901	C190	0.216600	0.253800	0.309350
C1911	C191	0.211000	0.251800	0.339500
C1921	C192	0.268700	0.258200	0.356480
C1931	C193	0.329000	0.266300	0.343000
C1941	C194	0.334100	0.268800	0.312540
C1951	C195	0.145700	0.240300	0.354060
C1961	C196	0.390700	0.271100	0.361210
C1971	C197	0.283700	0.267200	0.238100
C1981	C198	0.281100	0.264700	0.264160
C1991	C199	0.655500	0.495000	0.296660
C2001	C200	0.680400	0.535900	0.311030
C2011	C201	0.680200	0.538400	0.341220
C2021	C202	0.656600	0.499000	0.357770
C2031	C203	0.632600	0.458000	0.344080
C2041	C204	0.633000	0.456200	0.312950
C2051	C205	0.704800	0.582800	0.357080
C2061	C206	0.609100	0.414200	0.360880
C2071	C207	0.651700	0.490600	0.207400
C2081	C208	0.623300	0.451900	0.191440
C2091	C209	0.625300	0.453100	0.160770
C2101	C210	0.652900	0.492200	0.146220
C2111	C211	0.680300	0.530200	0.161240
C2121	C212	0.680700	0.528900	0.192280
C2131	C213	0.594400	0.410600	0.143430
C2141	C214	0.710000	0.574000	0.145310
C2151	C215	0.653200	0.492900	0.265430
C2161	C216	0.651100	0.490400	0.238850
C2171	C217	0.495700	0.758100	0.289550
C2181	C218	0.551000	0.743300	0.305170
C2191	C219	0.550200	0.742600	0.335960
C2201	C220	0.491900	0.755100	0.351140
C2211	C221	0.435600	0.769400	0.335490
C2221	C222	0.438800	0.771300	0.304770
C2231	C223	0.611800	0.726100	0.352670
C2241	C224	0.373000	0.783700	0.351450
C2251	C225	0.501200	0.762000	0.200170
C2261	C226	0.450800	0.781300	0.184200
C2271	C227	0.451600	0.783200	0.153450
C2281	C228	0.506100	0.762000	0.139280
C2291	C229	0.556000	0.740400	0.154830
C2301	C230	0.555400	0.740800	0.184900
C2311	C231	0.397500	0.804900	0.136640
C2321	C232	0.612000	0.716500	0.138540
C2331	C233	0.497300	0.760000	0.258450
C2341	C234	0.499000	0.760100	0.231780
C2351	C235	0.279700	0.622900	0.012420
C2361	C236	0.283200	0.662000	0.031430
C2371	C237	0.246400	0.702800	0.026950
C2381	C238	0.205300	0.707500	0.002090
C2391	C239	0.203200	0.669000	0.981660
C2401	C240	0.238800	0.627000	0.987060
C2411	C241	0.248100	0.745700	0.049060
C2421	C242	0.160200	0.673400	0.954750
C2431	C243	0.364500	0.490100	0.011890
C2441	C244	0.342400	0.464300	0.987290
C2451	C245	0.366500	0.417900	0.981340
C2461	C246	0.412700	0.397600	0.999490
C2471	C247	0.433800	0.422000	0.024680
C2481	C248	0.410300	0.467900	0.031140
C2491	C249	0.339100	0.389900	0.955760
C2501	C250	0.482700	0.396900	0.044610
C2511	C251	0.314000	0.577800	0.016420
C2521	C252	0.338800	0.538700	0.016580
C2531	C253	0.428300	0.477700	0.505900
C2541	C254	0.452500	0.450400	0.481750
C2551	C255	0.429000	0.403700	0.476790
C2561	C256	0.382400	0.383400	0.495080
C2571	C257	0.361400	0.408400	0.520000
C2581	C258	0.384100	0.456000	0.524840
C2591	C259	0.457900	0.376400	0.450720
C2601	C260	0.312500	0.385200	0.540470
C2611	C261	0.509700	0.612200	0.505060
C2621	C262	0.498000	0.650500	0.524910
C2631	C263	0.528400	0.694900	0.521280
C2641	C264	0.571500	0.701900	0.497440
C2651	C265	0.583200	0.664500	0.477660
C2661	C266	0.552700	0.619800	0.482070
C2671	C267	0.515200	0.736600	0.541790
C2681	C268	0.629500	0.672600	0.451920
C2691	C269	0.453900	0.525800	0.509400
C2701	C270	0.477400	0.565400	0.508560
C2711	C271	0.786500	0.735300	0.793870
C2721	C272	0.844600	0.723300	0.809110
C2731	C273	0.845900	0.724100	0.839340
C2741	C274	0.788700	0.736800	0.855100
C2751	C275	0.730700	0.749000	0.840090
C2761	C276	0.729500	0.747800	0.809640
C2771	C277	0.908000	0.710700	0.855680
C2781	C278	0.669500	0.765300	0.856190
C2791	C279	0.776800	0.737100	0.704690
C2801	C280	0.716600	0.746200	0.690650
C2811	C281	0.711000	0.748200	0.660500
C2821	C282	0.768700	0.741800	0.643520
C2831	C283	0.829000	0.733700	0.657000
C2841	C284	0.834100	0.731200	0.687460
C2851	C285	0.645700	0.759700	0.645940
C2861	C286	0.890700	0.728900	0.638790
C2871	C287	0.783700	0.732800	0.761900
C2881	C288	0.781100	0.735300	0.735840
C2891	C289	0.155500	0.505000	0.703340
C2901	C290	0.180400	0.464100	0.688970
C2911	C291	0.180200	0.461600	0.658780
C2921	C292	0.156600	0.501000	0.642230
C2931	C293	0.132600	0.542000	0.655920
C2941	C294	0.133000	0.543800	0.687050
C2951	C295	0.204800	0.417200	0.642920
C2961	C296	0.109100	0.585800	0.639120
C2971	C297	0.151700	0.509400	0.792600
C2981	C298	0.123300	0.548100	0.808560
C2991	C299	0.125300	0.546900	0.839230
C3001	C300	0.152900	0.507800	0.853780
C3011	C301	0.180300	0.469800	0.838760
C3021	C302	0.180700	0.471100	0.807720
C3031	C303	0.094400	0.589400	0.856570
C3041	C304	0.210000	0.426000	0.854690
C3051	C305	0.153200	0.507100	0.734570
C3061	C306	0.151100	0.509600	0.761150
C3071	C307	0.995700	0.241900	0.710450
C3081	C308	0.051000	0.256700	0.694830
C3091	C309	0.050200	0.257400	0.664040
C3101	C310	0.991900	0.244900	0.648860
C3111	C311	0.935600	0.230600	0.664510
C3121	C312	0.938800	0.228700	0.695230
C3131	C313	0.111800	0.273900	0.647330
C3141	C314	0.873000	0.216300	0.648550
C3151	C315	0.001200	0.238000	0.799830
C3161	C316	0.950800	0.218700	0.815800
C3171	C317	0.951600	0.216800	0.846550
C3181	C318	0.006100	0.238000	0.860720
C3191	C319	0.056000	0.259600	0.845170
C3201	C320	0.055400	0.259200	0.815100
C3211	C321	0.897500	0.195100	0.863360
C3221	C322	0.112000	0.283500	0.861460
C3231	C323	0.997300	0.240000	0.741550
C3241	C324	0.999000	0.239900	0.768220
C3251	C325	0.779700	0.377100	0.987580
C3261	C326	0.783200	0.338000	0.968570
C3271	C327	0.746400	0.297200	0.973050
C3281	C328	0.705300	0.292500	0.997910
C3291	C329	0.703200	0.331000	0.018340
C3301	C330	0.738800	0.373000	0.012940
C3311	C331	0.748100	0.254300	0.950940
C3321	C332	0.660200	0.326600	0.045250
C3331	C333	0.864500	0.509900	0.988110
C3341	C334	0.842400	0.535700	0.012710
C3351	C335	0.866500	0.582100	0.018660
C3361	C336	0.912700	0.602400	0.000510
C3371	C337	0.933800	0.578000	0.975320
C3381	C338	0.910300	0.532100	0.968860
C3391	C339	0.839100	0.610100	0.044240
C3401	C340	0.982700	0.603100	0.955390
C3411	C341	0.814000	0.422200	0.983580
C3421	C342	0.838800	0.461300	0.983420
C3431	C343	0.928300	0.522300	0.494100
C3441	C344	0.952500	0.549600	0.518250
C3451	C345	0.929000	0.596300	0.523210
C3461	C346	0.882400	0.616600	0.504920
C3471	C347	0.861400	0.591600	0.480000
C3481	C348	0.884100	0.544000	0.475160
C3491	C349	0.957900	0.623600	0.549280
C3501	C350	0.812500	0.614800	0.459530
C3511	C351	0.009700	0.387800	0.494940
C3521	C352	0.998000	0.349500	0.475090
C3531	C353	0.028400	0.305100	0.478720
C3541	C354	0.071500	0.298100	0.502560
C3551	C355	0.083200	0.335500	0.522340
C3561	C356	0.052700	0.380200	0.517930
C3571	C357	0.015200	0.263400	0.458210
C3581	C358	0.129500	0.327400	0.548080
C3591	C359	0.953900	0.474200	0.490600
C3601	C360	0.977400	0.434600	0.491440
O11	O1	0.407900	0.793100	0.882440
O21	O2	0.459700	0.795310	0.838600
O31	O3	0.170080	0.735760	0.883940
O41	O4	0.120800	0.722220	0.840260
O51	O5	0.143000	0.743000	0.618210
O61	O6	0.099400	0.727320	0.662250
O71	O7	0.383900	0.775600	0.611040
O81	O8	0.446500	0.771300	0.652360
O91	O9	0.747730	0.191460	0.603820
O101	O10	0.701800	0.082900	0.615530
O111	O11	0.727300	0.117020	0.658800
O121	O12	0.603400	0.920500	0.611510
O131	O13	0.596800	0.876900	0.652690
O141	O14	0.602800	0.912170	0.883700
O151	O15	0.566500	0.878210	0.842180
O161	O16	0.711900	0.072500	0.881710
O171	O17	0.733400	0.107280	0.838090
O181	O18	0.610900	0.228100	0.620230
O191	O19	0.660500	0.213300	0.663790
O201	O20	0.374000	0.285300	0.620960
O211	O21	0.323100	0.293470	0.665100
O221	O22	0.398400	0.297400	0.890950
O231	O23	0.354400	0.329000	0.850210
O241	O24	0.611200	0.221800	0.889430
O251	O25	0.654900	0.194600	0.846600
O261	O26	0.194700	0.270050	0.948560
O271	O27	0.300300	0.252040	0.937010
O281	O28	0.139800	0.214260	0.051910
O291	O29	0.148900	0.134170	0.059130
O301	O30	0.364800	0.850050	0.050250
O311	O31	0.292100	0.907400	0.058000
O321	O32	0.503400	0.855100	0.961340
O331	O33	0.503300	0.920230	0.932770
O341	O34	0.539060	0.809190	0.605650
O351	O35	0.426000	0.839450	0.558230
O361	O36	0.512200	0.891950	0.559190
O371	O37	0.292200	0.843700	0.464470
O381	O38	0.296300	0.909100	0.436480
O391	O39	0.547300	0.274520	0.460090
O401	O40	0.469200	0.229080	0.438920
O411	O41	0.646100	0.214240	0.554210
O421	O42	0.646400	0.133750	0.561760
O431	O43	0.038680	0.689860	0.899170
O441	O44	0.249100	0.337310	0.895880
O451	O45	0.907900	0.206900	0.117560
O461	O46	0.959700	0.204690	0.161400
O471	O47	0.670080	0.264240	0.116060
O481	O48	0.620800	0.277780	0.159740
O491	O49	0.643000	0.257000	0.381790
O501	O50	0.599400	0.272680	0.337750
O511	O51	0.883900	0.224400	0.388960
O521	O52	0.946500	0.228700	0.347640
O531	O53	0.247730	0.808540	0.396180
O541	O54	0.201800	0.917100	0.384470
O551	O55	0.227300	0.882980	0.341200
O561	O56	0.103400	0.079500	0.388490
O571	O57	0.096800	0.123100	0.347310
O581	O58	0.102800	0.087830	0.116300
O591	O59	0.066500	0.121790	0.157820
O601	O60	0.211900	0.927500	0.118290
O611	O61	0.233400	0.892720	0.161910
O621	O62	0.110900	0.771900	0.379770
O631	O63	0.160500	0.786700	0.336210
O641	O64	0.874000	0.714700	0.379040
O651	O65	0.823100	0.706530	0.334900
O661	O66	0.898400	0.702600	0.109050
O671	O67	0.854400	0.671000	0.149790
O681	O68	0.111200	0.778200	0.110570
O691	O69	0.154900	0.805400	0.153400
O701	O70	0.694700	0.729950	0.051440
O711	O71	0.800300	0.747960	0.062990
O721	O72	0.639800	0.785740	0.948090
O731	O73	0.648900	0.865830	0.940870
O741	O74	0.864800	0.149950	0.949750
O751	O75	0.792100	0.092600	0.942000
O761	O76	0.003400	0.144900	0.038660
O771	O77	0.003300	0.079770	0.067230
O781	O78	0.039060	0.190810	0.394350
O791	O79	0.926000	0.160550	0.441770
O801	O80	0.012200	0.108050	0.440810
O811	O81	0.792200	0.156300	0.535530
O821	O82	0.796300	0.090900	0.563520
O831	O83	0.047300	0.725480	0.539910
O841	O84	0.969200	0.770920	0.561080
O851	O85	0.146100	0.785760	0.445790
O861	O86	0.146400	0.866250	0.438240
O871	O87	0.538680	0.310140	0.100830
O881	O88	0.749100	0.662690	0.104120
O891	O89	0.407900	0.293100	0.117560
O901	O90	0.459700	0.295310	0.161400
O911	O91	0.170080	0.235760	0.116060
O921	O92	0.120800	0.222220	0.159740
O931	O93	0.143000	0.243000	0.381790
O941	O94	0.099400	0.227320	0.337750
O951	O95	0.383900	0.275600	0.388960
O961	O96	0.446500	0.271300	0.347640
O971	O97	0.747730	0.691460	0.396180
O981	O98	0.701800	0.582900	0.384470
O991	O99	0.727300	0.617020	0.341200
O1001	O100	0.603400	0.420500	0.388490
O1011	O101	0.596800	0.376900	0.347310
O1021	O102	0.602800	0.412170	0.116300
O1031	O103	0.566500	0.378210	0.157820
O1041	O104	0.711900	0.572500	0.118290
O1051	O105	0.733400	0.607280	0.161910
O1061	O106	0.610900	0.728100	0.379770
O1071	O107	0.660500	0.713300	0.336210
O1081	O108	0.374000	0.785300	0.379040
O1091	O109	0.323100	0.793470	0.334900
O1101	O110	0.398400	0.797400	0.109050
O1111	O111	0.354400	0.829000	0.149790
O1121	O112	0.611200	0.721800	0.110570
O1131	O113	0.654900	0.694600	0.153400
O1141	O114	0.194700	0.770050	0.051440
O1151	O115	0.300300	0.752040	0.062990
O1161	O116	0.139800	0.714260	0.948090
O1171	O117	0.148900	0.634170	0.940870
O1181	O118	0.364800	0.350050	0.949750
O1191	O119	0.292100	0.407400	0.942000
O1201	O120	0.503400	0.355100	0.038660
O1211	O121	0.503300	0.420230	0.067230
O1221	O122	0.539060	0.309190	0.394350
O1231	O123	0.426000	0.339450	0.441770
O1241	O124	0.512200	0.391950	0.440810
O1251	O125	0.292200	0.343700	0.535530
O1261	O126	0.296300	0.409100	0.563520
O1271	O127	0.547300	0.774520	0.539910
O1281	O128	0.469200	0.729080	0.561080
O1291	O129	0.646100	0.714240	0.445790
O1301	O130	0.646400	0.633750	0.438240
O1311	O131	0.038680	0.189860	0.100830
O1321	O132	0.249100	0.837310	0.104120
O1331	O133	0.907900	0.706900	0.882440
O1341	O134	0.959700	0.704690	0.838600
O1351	O135	0.670080	0.764240	0.883940
O1361	O136	0.620800	0.777780	0.840260
O1371	O137	0.643000	0.757000	0.618210
O1381	O138	0.599400	0.772680	0.662250
O1391	O139	0.883900	0.724400	0.611040
O1401	O140	0.946500	0.728700	0.652360
O1411	O141	0.247730	0.308540	0.603820
O1421	O142	0.201800	0.417100	0.615530
O1431	O143	0.227300	0.382980	0.658800
O1441	O144	0.103400	0.579500	0.611510
O1451	O145	0.096800	0.623100	0.652690
O1461	O146	0.102800	0.587830	0.883700
O1471	O147	0.066500	0.621790	0.842180
O1481	O148	0.211900	0.427500	0.881710
O1491	O149	0.233400	0.392720	0.838090
O1501	O150	0.110900	0.271900	0.620230
O1511	O151	0.160500	0.286700	0.663790
O1521	O152	0.874000	0.214700	0.620960
O1531	O153	0.823100	0.206530	0.665100
O1541	O154	0.898400	0.202600	0.890950
O1551	O155	0.854400	0.171000	0.850210
O1561	O156	0.111200	0.278200	0.889430
O1571	O157	0.154900	0.305400	0.846600
O1581	O158	0.694700	0.229950	0.948560
O1591	O159	0.800300	0.247960	0.937010
O1601	O160	0.639800	0.285740	0.051910
O1611	O161	0.648900	0.365830	0.059130
O1621	O162	0.864800	0.649950	0.050250
O1631	O163	0.792100	0.592600	0.058000
O1641	O164	0.003400	0.644900	0.961340
O1651	O165	0.003300	0.579770	0.932770
O1661	O166	0.039060	0.690810	0.605650
O1671	O167	0.926000	0.660550	0.558230
O1681	O168	0.012200	0.608050	0.559190
O1691	O169	0.792200	0.656300	0.464470
O1701	O170	0.796300	0.590900	0.436480
O1711	O171	0.047300	0.225480	0.460090
O1721	O172	0.969200	0.270920	0.438920
O1731	O173	0.146100	0.285760	0.554210
O1741	O174	0.146400	0.366250	0.561760
O1751	O175	0.538680	0.810140	0.899170
O1761	O176	0.749100	0.162690	0.895880
