data_YOPPAW_clean_PM
_symmetry_space_group_name_H-M	'P1'
_cell_length_a	10.100000
_cell_length_b	13.978000
_cell_length_c	14.481000
_cell_angle_alpha	63.119000
_cell_angle_beta	71.811000
_cell_angle_gamma	79.588000
_symmetry_Int_Tables_number 1

loop_
_symmetry_equiv_pos_as_xyz
'x,y,z'

loop_
_atom_site_label
_atom_site_type_symbol
_atom_site_fract_x
_atom_site_fract_y
_atom_site_fract_z
Cd11	Cd1	0.195680	0.034050	0.393920
Cd21	Cd2	0.768100	0.928630	0.025940
O11	O1	0.433700	0.035800	0.345700
O21	O2	0.380500	0.156100	0.195700
O31	O3	0.889900	0.043300	0.420900
O41	O4	0.062900	0.123300	0.279800
O51	O5	0.112300	0.222700	0.003000
O61	O6	0.019600	0.066300	0.115100
O71	O7	0.653000	0.041900	0.099200
O81	O8	0.811000	0.148700	0.961000
N11	N1	0.194900	0.866400	0.397300
N21	N2	0.191300	0.190700	0.417700
N31	N3	0.607300	0.807500	0.172500
C11	C1	0.196300	0.772800	0.485300
H11	H1	0.212600	0.773400	0.544800
C21	C2	0.174300	0.678100	0.488700
H21	H2	0.178300	0.616000	0.550600
C31	C3	0.146500	0.668500	0.406100
C41	C4	0.157300	0.760300	0.316200
H31	H3	0.152000	0.757700	0.254500
C51	C5	0.176600	0.861500	0.310700
H41	H4	0.176700	0.923700	0.248100
C61	C6	0.094000	0.566800	0.414800
H51	H5	0.041700	0.575700	0.368900
C71	C7	0.121000	0.463500	0.486200
H61	H6	0.115000	0.451400	0.556000
C81	C8	0.158800	0.370700	0.457900
C91	C9	0.175400	0.269600	0.540900
H71	H7	0.177000	0.260600	0.608300
C101	C10	0.189000	0.185400	0.513900
H81	H8	0.197500	0.117000	0.567600
C111	C11	0.181000	0.287300	0.341500
H91	H9	0.184600	0.294000	0.273900
C121	C12	0.164900	0.378700	0.357500
H101	H10	0.158200	0.445700	0.301400
C131	C13	0.587700	0.802200	0.269900
H111	H11	0.602100	0.862600	0.276200
C141	C14	0.545700	0.707900	0.364200
H121	H12	0.533500	0.706800	0.431100
C151	C15	0.523500	0.620200	0.357300
C161	C16	0.536200	0.626300	0.259600
H131	H13	0.517800	0.567000	0.253300
C171	C17	0.576400	0.720200	0.168200
H141	H14	0.582300	0.722800	0.101700
C181	C18	0.495100	0.511300	0.452400
H151	H15	0.469100	0.457400	0.441700
C191	C19	0.464300	0.113400	0.250100
C201	C20	0.608400	0.162400	0.216100
H161	H16	0.585700	0.223900	0.234500
C211	C21	0.716600	0.095200	0.276600
H171	H17	0.672100	0.063100	0.352900
H181	H18	0.755100	0.037600	0.254600
C221	C22	0.833300	0.163200	0.254800
H191	H19	0.786400	0.218000	0.280100
C231	C23	0.903400	0.227500	0.135700
H201	H20	0.949300	0.285500	0.132300
C241	C24	0.795200	0.283700	0.068300
H211	H21	0.754300	0.346900	0.080200
H221	H22	0.843800	0.307600	0.992900
C251	C25	0.676600	0.212500	0.094200
H231	H23	0.605200	0.260100	0.060000
C261	C26	0.937200	0.103500	0.323700
C271	C27	0.019200	0.165700	0.083100
C281	C28	0.719900	0.127900	0.049900
Cd31	Cd3	0.804320	0.965950	0.606080
Cd41	Cd4	0.231900	0.071370	0.974060
O91	O9	0.566300	0.964200	0.654300
O101	O10	0.619500	0.843900	0.804300
O111	O11	0.110100	0.956700	0.579100
O121	O12	0.937100	0.876700	0.720200
O131	O13	0.887700	0.777300	0.997000
O141	O14	0.980400	0.933700	0.884900
O151	O15	0.347000	0.958100	0.900800
O161	O16	0.189000	0.851300	0.039000
N41	N4	0.805100	0.133600	0.602700
N51	N5	0.808700	0.809300	0.582300
N61	N6	0.392700	0.192500	0.827500
C291	C29	0.803700	0.227200	0.514700
H241	H24	0.787400	0.226600	0.455200
C301	C30	0.825700	0.321900	0.511300
H251	H25	0.821700	0.384000	0.449400
C311	C31	0.853500	0.331500	0.593900
C321	C32	0.842700	0.239700	0.683800
H261	H26	0.848000	0.242300	0.745500
C331	C33	0.823400	0.138500	0.689300
H271	H27	0.823300	0.076300	0.751900
C341	C34	0.906000	0.433200	0.585200
H281	H28	0.958300	0.424300	0.631100
C351	C35	0.879000	0.536500	0.513800
H291	H29	0.885000	0.548600	0.444000
C361	C36	0.841200	0.629300	0.542100
C371	C37	0.824600	0.730400	0.459100
H301	H30	0.823000	0.739400	0.391700
C381	C38	0.811000	0.814600	0.486100
H311	H31	0.802500	0.883000	0.432400
C391	C39	0.819000	0.712700	0.658500
H321	H32	0.815400	0.706000	0.726100
C401	C40	0.835100	0.621300	0.642500
H331	H33	0.841800	0.554300	0.698600
C411	C41	0.412300	0.197800	0.730100
H341	H34	0.397900	0.137400	0.723800
C421	C42	0.454300	0.292100	0.635800
H351	H35	0.466500	0.293200	0.568900
C431	C43	0.476500	0.379800	0.642700
C441	C44	0.463800	0.373700	0.740400
H361	H36	0.482200	0.433000	0.746700
C451	C45	0.423600	0.279800	0.831800
H371	H37	0.417700	0.277200	0.898300
C461	C46	0.504900	0.488700	0.547600
H381	H38	0.530900	0.542600	0.558300
C471	C47	0.535700	0.886600	0.749900
C481	C48	0.391600	0.837600	0.783900
H391	H39	0.414300	0.776100	0.765500
C491	C49	0.283400	0.904800	0.723400
H401	H40	0.327900	0.936900	0.647100
H411	H41	0.244900	0.962400	0.745400
C501	C50	0.166700	0.836800	0.745200
H421	H42	0.213600	0.782000	0.719900
C511	C51	0.096600	0.772500	0.864300
H431	H43	0.050700	0.714500	0.867700
C521	C52	0.204800	0.716300	0.931700
H441	H44	0.245700	0.653100	0.919800
H451	H45	0.156200	0.692400	0.007100
C531	C53	0.323400	0.787500	0.905800
H461	H46	0.394800	0.739900	0.940000
C541	C54	0.062800	0.896500	0.676300
C551	C55	0.980800	0.834300	0.916900
C561	C56	0.280100	0.872100	0.950100
