data_YOQLAT_clean_PM
_symmetry_space_group_name_H-M	'P1'
_cell_length_a	10.841600
_cell_length_b	17.649800
_cell_length_c	18.504900
_cell_angle_alpha	90.000000
_cell_angle_beta	92.707000
_cell_angle_gamma	90.000000
_symmetry_Int_Tables_number 1

loop_
_symmetry_equiv_pos_as_xyz
'x,y,z'

loop_
_atom_site_label
_atom_site_type_symbol
_atom_site_fract_x
_atom_site_fract_y
_atom_site_fract_z
Ba11	Ba1	0.199120	0.818750	0.246910
Fe11	Fe1	0.751510	0.045350	0.252020
Fe21	Fe2	0.696830	0.656080	0.252040
O11	O1	0.668500	0.993220	0.332600
O21	O2	0.707300	0.137360	0.311770
O31	O3	0.579100	0.015310	0.436540
O41	O4	0.644400	0.165760	0.421910
O51	O5	0.786800	0.116030	0.171780
O61	O6	0.595100	0.027810	0.187470
O71	O7	0.716100	0.149810	0.061170
O81	O8	0.529000	0.043490	0.073970
O91	O9	0.922400	0.034790	0.298430
O101	O10	0.811800	0.951800	0.201070
O111	O11	0.089200	0.957340	0.303270
O121	O12	0.983600	0.886000	0.181300
O131	O13	0.624300	0.569160	0.193020
O141	O14	0.743500	0.569800	0.318600
O151	O15	0.631000	0.442540	0.188100
O161	O16	0.725400	0.444500	0.328890
O171	O17	0.558200	0.682390	0.317420
O181	O18	0.604800	0.730880	0.188530
O191	O19	0.399800	0.761630	0.324960
O201	O20	0.440500	0.806560	0.185580
O211	O21	0.802000	0.727800	0.312840
O221	O22	0.843800	0.659990	0.192200
O231	O23	0.985200	0.783100	0.317260
O241	O24	0.031700	0.712080	0.188760
C11	C1	0.632500	0.036300	0.383100
C21	C2	0.662800	0.120800	0.372900
C31	C3	0.710000	0.112800	0.117800
C41	C4	0.599500	0.057000	0.126500
C51	C5	0.987300	0.978200	0.278500
C61	C6	0.922800	0.933800	0.214400
C71	C7	0.650300	0.503100	0.218600
C81	C8	0.710500	0.504400	0.294600
C91	C9	0.485800	0.732800	0.292000
C101	C10	0.509100	0.760400	0.215300
C111	C11	0.908400	0.741200	0.288100
C121	C12	0.932700	0.701600	0.217300
Ba21	Ba2	0.443550	0.878650	0.445600
Ba31	Ba3	0.580570	0.104900	0.938620
O251	O25	0.219600	0.798810	0.093360
O261	O26	0.534900	0.722400	0.474110
Ba41	Ba4	0.800880	0.318750	0.253090
Fe31	Fe3	0.248490	0.545350	0.247980
Fe41	Fe4	0.303170	0.156080	0.247960
O271	O27	0.331500	0.493220	0.167400
O281	O28	0.292700	0.637360	0.188230
O291	O29	0.420900	0.515310	0.063460
O301	O30	0.355600	0.665760	0.078090
O311	O31	0.213200	0.616030	0.328220
O321	O32	0.404900	0.527810	0.312530
O331	O33	0.283900	0.649810	0.438830
O341	O34	0.471000	0.543490	0.426030
O351	O35	0.077600	0.534790	0.201570
O361	O36	0.188200	0.451800	0.298930
O371	O37	0.910800	0.457340	0.196730
O381	O38	0.016400	0.386000	0.318700
O391	O39	0.375700	0.069160	0.306980
O401	O40	0.256500	0.069800	0.181400
O411	O41	0.369000	0.942540	0.311900
O421	O42	0.274600	0.944500	0.171110
O431	O43	0.441800	0.182390	0.182580
O441	O44	0.395200	0.230880	0.311470
O451	O45	0.600200	0.261630	0.175040
O461	O46	0.559500	0.306560	0.314420
O471	O47	0.198000	0.227800	0.187160
O481	O48	0.156200	0.159990	0.307800
O491	O49	0.014800	0.283100	0.182740
O501	O50	0.968300	0.212080	0.311240
C131	C13	0.367500	0.536300	0.116900
C141	C14	0.337200	0.620800	0.127100
C151	C15	0.290000	0.612800	0.382200
C161	C16	0.400500	0.557000	0.373500
C171	C17	0.012700	0.478200	0.221500
C181	C18	0.077200	0.433800	0.285600
C191	C19	0.349700	0.003100	0.281400
C201	C20	0.289500	0.004400	0.205400
C211	C21	0.514200	0.232800	0.208000
C221	C22	0.490900	0.260400	0.284700
C231	C23	0.091600	0.241200	0.211900
C241	C24	0.067300	0.201600	0.282700
Ba51	Ba5	0.556450	0.378650	0.054400
Ba61	Ba6	0.419430	0.604900	0.561380
O511	O51	0.780400	0.298810	0.406640
O521	O52	0.465100	0.222400	0.025890
Ba71	Ba7	0.800880	0.181250	0.753090
Fe51	Fe5	0.248490	0.954650	0.747980
Fe61	Fe6	0.303170	0.343920	0.747960
O531	O53	0.331500	0.006780	0.667400
O541	O54	0.292700	0.862640	0.688230
O551	O55	0.420900	0.984690	0.563460
O561	O56	0.355600	0.834240	0.578090
O571	O57	0.213200	0.883970	0.828220
O581	O58	0.404900	0.972190	0.812530
O591	O59	0.283900	0.850190	0.938830
O601	O60	0.471000	0.956510	0.926030
O611	O61	0.077600	0.965210	0.701570
O621	O62	0.188200	0.048200	0.798930
O631	O63	0.910800	0.042660	0.696730
O641	O64	0.016400	0.114000	0.818700
O651	O65	0.375700	0.430840	0.806980
O661	O66	0.256500	0.430200	0.681400
O671	O67	0.369000	0.557460	0.811900
O681	O68	0.274600	0.555500	0.671110
O691	O69	0.441800	0.317610	0.682580
O701	O70	0.395200	0.269120	0.811470
O711	O71	0.600200	0.238370	0.675040
O721	O72	0.559500	0.193440	0.814420
O731	O73	0.198000	0.272200	0.687160
O741	O74	0.156200	0.340010	0.807800
O751	O75	0.014800	0.216900	0.682740
O761	O76	0.968300	0.287920	0.811240
C251	C25	0.367500	0.963700	0.616900
C261	C26	0.337200	0.879200	0.627100
C271	C27	0.290000	0.887200	0.882200
C281	C28	0.400500	0.943000	0.873500
C291	C29	0.012700	0.021800	0.721500
C301	C30	0.077200	0.066200	0.785600
C311	C31	0.349700	0.496900	0.781400
C321	C32	0.289500	0.495600	0.705400
C331	C33	0.514200	0.267200	0.708000
C341	C34	0.490900	0.239600	0.784700
C351	C35	0.091600	0.258800	0.711900
C361	C36	0.067300	0.298400	0.782700
Ba81	Ba8	0.556450	0.121350	0.554400
Ba91	Ba9	0.419430	0.895100	0.061380
O771	O77	0.780400	0.201190	0.906640
O781	O78	0.465100	0.277600	0.525890
Ba101	Ba10	0.199120	0.681250	0.746910
Fe71	Fe7	0.751510	0.454650	0.752020
Fe81	Fe8	0.696830	0.843920	0.752040
O791	O79	0.668500	0.506780	0.832600
O801	O80	0.707300	0.362640	0.811770
O811	O81	0.579100	0.484690	0.936540
O821	O82	0.644400	0.334240	0.921910
O831	O83	0.786800	0.383970	0.671780
O841	O84	0.595100	0.472190	0.687470
O851	O85	0.716100	0.350190	0.561170
O861	O86	0.529000	0.456510	0.573970
O871	O87	0.922400	0.465210	0.798430
O881	O88	0.811800	0.548200	0.701070
O891	O89	0.089200	0.542660	0.803270
O901	O90	0.983600	0.614000	0.681300
O911	O91	0.624300	0.930840	0.693020
O921	O92	0.743500	0.930200	0.818600
O931	O93	0.631000	0.057460	0.688100
O941	O94	0.725400	0.055500	0.828890
O951	O95	0.558200	0.817610	0.817420
O961	O96	0.604800	0.769120	0.688530
O971	O97	0.399800	0.738370	0.824960
O981	O98	0.440500	0.693440	0.685580
O991	O99	0.802000	0.772200	0.812840
O1001	O100	0.843800	0.840010	0.692200
O1011	O101	0.985200	0.716900	0.817260
O1021	O102	0.031700	0.787920	0.688760
C371	C37	0.632500	0.463700	0.883100
C381	C38	0.662800	0.379200	0.872900
C391	C39	0.710000	0.387200	0.617800
C401	C40	0.599500	0.443000	0.626500
C411	C41	0.987300	0.521800	0.778500
C421	C42	0.922800	0.566200	0.714400
C431	C43	0.650300	0.996900	0.718600
C441	C44	0.710500	0.995600	0.794600
C451	C45	0.485800	0.767200	0.792000
C461	C46	0.509100	0.739600	0.715300
C471	C47	0.908400	0.758800	0.788100
C481	C48	0.932700	0.798400	0.717300
Ba111	Ba11	0.443550	0.621350	0.945600
Ba121	Ba12	0.580570	0.395100	0.438620
O1031	O103	0.219600	0.701190	0.593360
O1041	O104	0.534900	0.777600	0.974110
