data_YOQYEK_clean_PM
_symmetry_space_group_name_H-M	'P1'
_cell_length_a	6.843100
_cell_length_b	8.988100
_cell_length_c	9.975500
_cell_angle_alpha	102.096000
_cell_angle_beta	100.554000
_cell_angle_gamma	110.170000
_symmetry_Int_Tables_number 1

loop_
_symmetry_equiv_pos_as_xyz
'x,y,z'

loop_
_atom_site_label
_atom_site_type_symbol
_atom_site_fract_x
_atom_site_fract_y
_atom_site_fract_z
O11	O1	0.578770	0.852610	0.266840
C11	C1	0.655910	0.925900	0.394360
O21	O2	0.369660	0.479570	0.865040
O31	O3	0.033470	0.408740	0.877830
C21	C2	0.168140	0.410540	0.806930
C31	C3	0.084470	0.328210	0.649170
C41	C4	0.910530	0.174280	0.597230
C51	C5	0.833340	0.094160	0.450870
Ca11	Ca1	0.314830	0.584860	0.109920
O41	O4	0.325220	0.558180	0.353100
O51	O5	0.140250	0.327910	0.176620
O61	O6	0.593290	0.863120	0.494680
C61	C6	0.096640	0.325680	0.408440
C71	C7	0.194070	0.408830	0.307240
C81	C8	0.177720	0.404150	0.555190
H11	H1	0.293900	0.507000	0.590200
H21	H2	0.846000	0.125000	0.660000
C91	C9	0.925820	0.170070	0.356470
H31	H3	0.873400	0.116800	0.258800
O71	O7	0.421230	0.147390	0.733160
C101	C10	0.344090	0.074100	0.605640
O81	O8	0.630340	0.520430	0.134960
O91	O9	0.966530	0.591260	0.122170
C111	C11	0.831860	0.589460	0.193070
C121	C12	0.915530	0.671790	0.350830
C131	C13	0.089470	0.825720	0.402770
C141	C14	0.166660	0.905840	0.549130
Ca21	Ca2	0.685170	0.415140	0.890080
O101	O10	0.674780	0.441820	0.646900
O111	O11	0.859750	0.672090	0.823380
O121	O12	0.406710	0.136880	0.505320
C151	C15	0.903360	0.674320	0.591560
C161	C16	0.805930	0.591170	0.692760
C171	C17	0.822280	0.595850	0.444810
H41	H4	0.706100	0.493000	0.409800
H51	H5	0.154000	0.875000	0.340000
C181	C18	0.074180	0.829930	0.643530
H61	H6	0.126600	0.883200	0.741200
