data_YOQYOT_clean_PM
_symmetry_space_group_name_H-M	'P1'
_cell_length_a	22.920600
_cell_length_b	7.704700
_cell_length_c	19.320800
_cell_angle_alpha	90.000000
_cell_angle_beta	114.596000
_cell_angle_gamma	90.000000
_symmetry_Int_Tables_number 1

loop_
_symmetry_equiv_pos_as_xyz
'x,y,z'

loop_
_atom_site_label
_atom_site_type_symbol
_atom_site_fract_x
_atom_site_fract_y
_atom_site_fract_z
Cd11	Cd1	0.247580	0.284200	0.272490
O11	O1	0.249500	0.080100	0.177760
O21	O2	0.254250	0.859200	0.110150
C11	C1	0.251290	0.018000	0.118360
C21	C2	0.250720	0.137900	0.057300
C31	C3	0.248700	0.317500	0.065200
H11	H1	0.247800	0.363800	0.109800
C41	C4	0.252000	0.071600	0.991250
H21	H2	0.253300	0.950900	0.984900
N11	N1	0.327830	0.091000	0.348240
N21	N2	0.334390	0.920900	0.330770
C51	C5	0.374930	0.124600	0.413600
H31	H3	0.381900	0.231700	0.439100
C61	C6	0.385100	0.858800	0.386500
H41	H4	0.400400	0.744600	0.389400
N31	N3	0.412370	0.982700	0.439450
C71	C7	0.472500	0.970200	0.509100
H51	H5	0.479600	0.849900	0.527300
H61	H6	0.469800	0.043200	0.549200
N41	N4	0.168210	0.085200	0.265110
N51	N5	0.168710	0.911500	0.249300
C81	C8	0.119800	0.111600	0.282300
H71	H7	0.108800	0.219400	0.296300
C91	C9	0.120380	0.841600	0.257500
H81	H8	0.109700	0.723100	0.250500
N61	N6	0.087690	0.962100	0.277300
C101	C10	0.028400	0.940500	0.288500
H91	H9	0.024200	0.035600	0.319800
H101	H10	0.029900	0.830900	0.314900
Cd21	Cd2	0.747580	0.784200	0.272490
O31	O3	0.749500	0.580100	0.177760
O41	O4	0.754250	0.359200	0.110150
C111	C11	0.751290	0.518000	0.118360
C121	C12	0.750720	0.637900	0.057300
C131	C13	0.748700	0.817500	0.065200
H111	H11	0.747800	0.863800	0.109800
C141	C14	0.752000	0.571600	0.991250
H121	H12	0.753300	0.450900	0.984900
N71	N7	0.827830	0.591000	0.348240
N81	N8	0.834390	0.420900	0.330770
C151	C15	0.874930	0.624600	0.413600
H131	H13	0.881900	0.731700	0.439100
C161	C16	0.885100	0.358800	0.386500
H141	H14	0.900400	0.244600	0.389400
N91	N9	0.912370	0.482700	0.439450
C171	C17	0.972500	0.470200	0.509100
H151	H15	0.979600	0.349900	0.527300
H161	H16	0.969800	0.543200	0.549200
N101	N10	0.668210	0.585200	0.265110
N111	N11	0.668710	0.411500	0.249300
C181	C18	0.619800	0.611600	0.282300
H171	H17	0.608800	0.719400	0.296300
C191	C19	0.620380	0.341600	0.257500
H181	H18	0.609700	0.223100	0.250500
N121	N12	0.587690	0.462100	0.277300
C201	C20	0.528400	0.440500	0.288500
H191	H19	0.524200	0.535600	0.319800
H201	H20	0.529900	0.330900	0.314900
Cd31	Cd3	0.752420	0.284200	0.227510
O51	O5	0.750500	0.080100	0.322240
O61	O6	0.745750	0.859200	0.389850
C211	C21	0.748710	0.018000	0.381640
C221	C22	0.749280	0.137900	0.442700
C231	C23	0.751300	0.317500	0.434800
H211	H21	0.752200	0.363800	0.390200
C241	C24	0.748000	0.071600	0.508750
H221	H22	0.746700	0.950900	0.515100
N131	N13	0.672170	0.091000	0.151760
N141	N14	0.665610	0.920900	0.169230
C251	C25	0.625070	0.124600	0.086400
H231	H23	0.618100	0.231700	0.060900
C261	C26	0.614900	0.858800	0.113500
H241	H24	0.599600	0.744600	0.110600
N151	N15	0.587630	0.982700	0.060550
C271	C27	0.527500	0.970200	0.990900
H251	H25	0.520400	0.849900	0.972700
H261	H26	0.530200	0.043200	0.950800
N161	N16	0.831790	0.085200	0.234890
N171	N17	0.831290	0.911500	0.250700
C281	C28	0.880200	0.111600	0.217700
H271	H27	0.891200	0.219400	0.203700
C291	C29	0.879620	0.841600	0.242500
H281	H28	0.890300	0.723100	0.249500
N181	N18	0.912310	0.962100	0.222700
C301	C30	0.971600	0.940500	0.211500
H291	H29	0.975800	0.035600	0.180200
H301	H30	0.970100	0.830900	0.185100
Cd41	Cd4	0.252420	0.784200	0.227510
O71	O7	0.250500	0.580100	0.322240
O81	O8	0.245750	0.359200	0.389850
C311	C31	0.248710	0.518000	0.381640
C321	C32	0.249280	0.637900	0.442700
C331	C33	0.251300	0.817500	0.434800
H311	H31	0.252200	0.863800	0.390200
C341	C34	0.248000	0.571600	0.508750
H321	H32	0.246700	0.450900	0.515100
N191	N19	0.172170	0.591000	0.151760
N201	N20	0.165610	0.420900	0.169230
C351	C35	0.125070	0.624600	0.086400
H331	H33	0.118100	0.731700	0.060900
C361	C36	0.114900	0.358800	0.113500
H341	H34	0.099600	0.244600	0.110600
N211	N21	0.087630	0.482700	0.060550
C371	C37	0.027500	0.470200	0.990900
H351	H35	0.020400	0.349900	0.972700
H361	H36	0.030200	0.543200	0.950800
N221	N22	0.331790	0.585200	0.234890
N231	N23	0.331290	0.411500	0.250700
C381	C38	0.380200	0.611600	0.217700
H371	H37	0.391200	0.719400	0.203700
C391	C39	0.379620	0.341600	0.242500
H381	H38	0.390300	0.223100	0.249500
N241	N24	0.412310	0.462100	0.222700
C401	C40	0.471600	0.440500	0.211500
H391	H39	0.475800	0.535600	0.180200
H401	H40	0.470100	0.330900	0.185100
Cd51	Cd5	0.752420	0.715800	0.727510
O91	O9	0.750500	0.919900	0.822240
O101	O10	0.745750	0.140800	0.889850
C411	C41	0.748710	0.982000	0.881640
C421	C42	0.749280	0.862100	0.942700
C431	C43	0.751300	0.682500	0.934800
H411	H41	0.752200	0.636200	0.890200
C441	C44	0.748000	0.928400	0.008750
H421	H42	0.746700	0.049100	0.015100
N251	N25	0.672170	0.909000	0.651760
N261	N26	0.665610	0.079100	0.669230
C451	C45	0.625070	0.875400	0.586400
H431	H43	0.618100	0.768300	0.560900
C461	C46	0.614900	0.141200	0.613500
H441	H44	0.599600	0.255400	0.610600
N271	N27	0.587630	0.017300	0.560550
C471	C47	0.527500	0.029800	0.490900
H451	H45	0.520400	0.150100	0.472700
H461	H46	0.530200	0.956800	0.450800
N281	N28	0.831790	0.914800	0.734890
N291	N29	0.831290	0.088500	0.750700
C481	C48	0.880200	0.888400	0.717700
H471	H47	0.891200	0.780600	0.703700
C491	C49	0.879620	0.158400	0.742500
H481	H48	0.890300	0.276900	0.749500
N301	N30	0.912310	0.037900	0.722700
C501	C50	0.971600	0.059500	0.711500
H491	H49	0.975800	0.964400	0.680200
H501	H50	0.970100	0.169100	0.685100
Cd61	Cd6	0.252420	0.215800	0.727510
O111	O11	0.250500	0.419900	0.822240
O121	O12	0.245750	0.640800	0.889850
C511	C51	0.248710	0.482000	0.881640
C521	C52	0.249280	0.362100	0.942700
C531	C53	0.251300	0.182500	0.934800
H511	H51	0.252200	0.136200	0.890200
C541	C54	0.248000	0.428400	0.008750
H521	H52	0.246700	0.549100	0.015100
N311	N31	0.172170	0.409000	0.651760
N321	N32	0.165610	0.579100	0.669230
C551	C55	0.125070	0.375400	0.586400
H531	H53	0.118100	0.268300	0.560900
C561	C56	0.114900	0.641200	0.613500
H541	H54	0.099600	0.755400	0.610600
N331	N33	0.087630	0.517300	0.560550
C571	C57	0.027500	0.529800	0.490900
H551	H55	0.020400	0.650100	0.472700
H561	H56	0.030200	0.456800	0.450800
N341	N34	0.331790	0.414800	0.734890
N351	N35	0.331290	0.588500	0.750700
C581	C58	0.380200	0.388400	0.717700
H571	H57	0.391200	0.280600	0.703700
C591	C59	0.379620	0.658400	0.742500
H581	H58	0.390300	0.776900	0.749500
N361	N36	0.412310	0.537900	0.722700
C601	C60	0.471600	0.559500	0.711500
H591	H59	0.475800	0.464400	0.680200
H601	H60	0.470100	0.669100	0.685100
Cd71	Cd7	0.247580	0.715800	0.772490
O131	O13	0.249500	0.919900	0.677760
O141	O14	0.254250	0.140800	0.610150
C611	C61	0.251290	0.982000	0.618360
C621	C62	0.250720	0.862100	0.557300
C631	C63	0.248700	0.682500	0.565200
H611	H61	0.247800	0.636200	0.609800
C641	C64	0.252000	0.928400	0.491250
H621	H62	0.253300	0.049100	0.484900
N371	N37	0.327830	0.909000	0.848240
N381	N38	0.334390	0.079100	0.830770
C651	C65	0.374930	0.875400	0.913600
H631	H63	0.381900	0.768300	0.939100
C661	C66	0.385100	0.141200	0.886500
H641	H64	0.400400	0.255400	0.889400
N391	N39	0.412370	0.017300	0.939450
C671	C67	0.472500	0.029800	0.009100
H651	H65	0.479600	0.150100	0.027300
H661	H66	0.469800	0.956800	0.049200
N401	N40	0.168210	0.914800	0.765110
N411	N41	0.168710	0.088500	0.749300
C681	C68	0.119800	0.888400	0.782300
H671	H67	0.108800	0.780600	0.796300
C691	C69	0.120380	0.158400	0.757500
H681	H68	0.109700	0.276900	0.750500
N421	N42	0.087690	0.037900	0.777300
C701	C70	0.028400	0.059500	0.788500
H691	H69	0.024200	0.964400	0.819800
H701	H70	0.029900	0.169100	0.814900
Cd81	Cd8	0.747580	0.215800	0.772490
O151	O15	0.749500	0.419900	0.677760
O161	O16	0.754250	0.640800	0.610150
C711	C71	0.751290	0.482000	0.618360
C721	C72	0.750720	0.362100	0.557300
C731	C73	0.748700	0.182500	0.565200
H711	H71	0.747800	0.136200	0.609800
C741	C74	0.752000	0.428400	0.491250
H721	H72	0.753300	0.549100	0.484900
N431	N43	0.827830	0.409000	0.848240
N441	N44	0.834390	0.579100	0.830770
C751	C75	0.874930	0.375400	0.913600
H731	H73	0.881900	0.268300	0.939100
C761	C76	0.885100	0.641200	0.886500
H741	H74	0.900400	0.755400	0.889400
N451	N45	0.912370	0.517300	0.939450
C771	C77	0.972500	0.529800	0.009100
H751	H75	0.979600	0.650100	0.027300
H761	H76	0.969800	0.456800	0.049200
N461	N46	0.668210	0.414800	0.765110
N471	N47	0.668710	0.588500	0.749300
C781	C78	0.619800	0.388400	0.782300
H771	H77	0.608800	0.280600	0.796300
C791	C79	0.620380	0.658400	0.757500
H781	H78	0.609700	0.776900	0.750500
N481	N48	0.587690	0.537900	0.777300
C801	C80	0.528400	0.559500	0.788500
H791	H79	0.524200	0.464400	0.819800
H801	H80	0.529900	0.669100	0.814900
