data_YORZAH_clean_PM
_symmetry_space_group_name_H-M	'P1'
_cell_length_a	6.820000
_cell_length_b	16.493000
_cell_length_c	22.220000
_cell_angle_alpha	90.000000
_cell_angle_beta	90.000000
_cell_angle_gamma	90.000000
_symmetry_Int_Tables_number 1

loop_
_symmetry_equiv_pos_as_xyz
'x,y,z'

loop_
_atom_site_label
_atom_site_type_symbol
_atom_site_fract_x
_atom_site_fract_y
_atom_site_fract_z
Sr11	Sr1	0.044030	0.057970	0.913060
Sr21	Sr2	0.455970	0.442030	0.413060
Sr31	Sr3	0.044030	0.942030	0.586940
Sr41	Sr4	0.455970	0.557970	0.086940
Sr51	Sr5	0.955970	0.942030	0.086940
Sr61	Sr6	0.544030	0.557970	0.586940
Sr71	Sr7	0.955970	0.057970	0.413060
Sr81	Sr8	0.544030	0.442030	0.913060
Sr91	Sr9	0.241670	0.000000	0.750000
Sr101	Sr10	0.258330	0.500000	0.250000
Sr111	Sr11	0.758330	0.000000	0.250000
Sr121	Sr12	0.741670	0.500000	0.750000
H11	H1	0.466600	0.752900	0.909400
H21	H2	0.299500	0.662300	0.749700
H31	H3	0.295000	0.031000	0.026000
H41	H4	0.305000	0.967000	0.992400
H51	H5	0.033400	0.747100	0.409400
H61	H6	0.200500	0.837700	0.249700
H71	H7	0.205000	0.469000	0.526000
H81	H8	0.195000	0.533000	0.492400
H91	H9	0.466600	0.247100	0.590600
H101	H10	0.299500	0.337700	0.750300
H111	H11	0.295000	0.969000	0.474000
H121	H12	0.305000	0.033000	0.507600
H131	H13	0.033400	0.252900	0.090600
H141	H14	0.200500	0.162300	0.250300
H151	H15	0.205000	0.531000	0.974000
H161	H16	0.195000	0.467000	0.007600
H171	H17	0.533400	0.247100	0.090600
H181	H18	0.700500	0.337700	0.250300
H191	H19	0.705000	0.969000	0.974000
H201	H20	0.695000	0.033000	0.007600
H211	H21	0.966600	0.252900	0.590600
H221	H22	0.799500	0.162300	0.750300
H231	H23	0.795000	0.531000	0.474000
H241	H24	0.805000	0.467000	0.507600
H251	H25	0.533400	0.752900	0.409400
H261	H26	0.700500	0.662300	0.249700
H271	H27	0.705000	0.031000	0.526000
H281	H28	0.695000	0.967000	0.492400
H291	H29	0.966600	0.747100	0.909400
H301	H30	0.799500	0.837700	0.749700
H311	H31	0.795000	0.469000	0.026000
H321	H32	0.805000	0.533000	0.992400
C11	C1	0.387800	0.836400	0.847600
C21	C2	0.423300	0.759600	0.870100
C31	C3	0.290800	0.784700	0.755900
C41	C4	0.208100	0.803700	0.694000
C51	C5	0.393700	0.692900	0.833500
C61	C6	0.441400	0.608400	0.855200
C71	C7	0.416200	0.910900	0.887200
C81	C8	0.323700	0.705900	0.775200
C91	C9	0.112200	0.663600	0.347600
C101	C10	0.076700	0.740400	0.370100
C111	C11	0.209200	0.715300	0.255900
C121	C12	0.291900	0.696300	0.194000
C131	C13	0.106300	0.807100	0.333500
C141	C14	0.058600	0.891600	0.355200
C151	C15	0.083800	0.589100	0.387200
C161	C16	0.176300	0.794100	0.275200
C171	C17	0.387800	0.163600	0.652400
C181	C18	0.423300	0.240400	0.629900
C191	C19	0.290800	0.215300	0.744100
C201	C20	0.208100	0.196300	0.806000
C211	C21	0.393700	0.307100	0.666500
C221	C22	0.441400	0.391600	0.644800
C231	C23	0.416200	0.089100	0.612800
C241	C24	0.323700	0.294100	0.724800
C251	C25	0.112200	0.336400	0.152400
C261	C26	0.076700	0.259600	0.129900
C271	C27	0.209200	0.284700	0.244100
C281	C28	0.291900	0.303700	0.306000
C291	C29	0.106300	0.192900	0.166500
C301	C30	0.058600	0.108400	0.144800
C311	C31	0.083800	0.410900	0.112800
C321	C32	0.176300	0.205900	0.224800
C331	C33	0.612200	0.163600	0.152400
C341	C34	0.576700	0.240400	0.129900
C351	C35	0.709200	0.215300	0.244100
C361	C36	0.791900	0.196300	0.306000
C371	C37	0.606300	0.307100	0.166500
C381	C38	0.558600	0.391600	0.144800
C391	C39	0.583800	0.089100	0.112800
C401	C40	0.676300	0.294100	0.224800
C411	C41	0.887800	0.336400	0.652400
C421	C42	0.923300	0.259600	0.629900
C431	C43	0.790800	0.284700	0.744100
C441	C44	0.708100	0.303700	0.806000
C451	C45	0.893700	0.192900	0.666500
C461	C46	0.941400	0.108400	0.644800
C471	C47	0.916200	0.410900	0.612800
C481	C48	0.823700	0.205900	0.724800
C491	C49	0.612200	0.836400	0.347600
C501	C50	0.576700	0.759600	0.370100
C511	C51	0.709200	0.784700	0.255900
C521	C52	0.791900	0.803700	0.194000
C531	C53	0.606300	0.692900	0.333500
C541	C54	0.558600	0.608400	0.355200
C551	C55	0.583800	0.910900	0.387200
C561	C56	0.676300	0.705900	0.275200
C571	C57	0.887800	0.663600	0.847600
C581	C58	0.923300	0.740400	0.870100
C591	C59	0.790800	0.715300	0.755900
C601	C60	0.708100	0.696300	0.694000
C611	C61	0.893700	0.807100	0.833500
C621	C62	0.941400	0.891600	0.855200
C631	C63	0.916200	0.589100	0.887200
C641	C64	0.823700	0.794100	0.775200
N11	N1	0.323800	0.849300	0.791230
N21	N2	0.176200	0.650700	0.291230
N31	N3	0.323800	0.150700	0.708770
N41	N4	0.176200	0.349300	0.208770
N51	N5	0.676200	0.150700	0.208770
N61	N6	0.823800	0.349300	0.708770
N71	N7	0.676200	0.849300	0.291230
N81	N8	0.823800	0.650700	0.791230
O11	O1	0.363500	0.978400	0.865120
O21	O2	0.167900	0.877100	0.683460
O31	O3	0.481500	0.600000	0.910230
O41	O4	0.228700	0.998700	0.007230
O51	O5	0.444200	0.550800	0.818280
O61	O6	0.482600	0.900400	0.938460
O71	O7	0.182300	0.747900	0.658330
O81	O8	0.136500	0.521600	0.365120
O91	O9	0.332100	0.622900	0.183460
O101	O10	0.018500	0.900000	0.410230
O111	O11	0.271300	0.501300	0.507230
O121	O12	0.055800	0.949200	0.318280
O131	O13	0.017400	0.599600	0.438460
O141	O14	0.317700	0.752100	0.158330
O151	O15	0.363500	0.021600	0.634880
O161	O16	0.167900	0.122900	0.816540
O171	O17	0.481500	0.400000	0.589770
O181	O18	0.228700	0.001300	0.492770
O191	O19	0.444200	0.449200	0.681720
O201	O20	0.482600	0.099600	0.561540
O211	O21	0.182300	0.252100	0.841670
O221	O22	0.136500	0.478400	0.134880
O231	O23	0.332100	0.377100	0.316540
O241	O24	0.018500	0.100000	0.089770
O251	O25	0.271300	0.498700	0.992770
O261	O26	0.055800	0.050800	0.181720
O271	O27	0.017400	0.400400	0.061540
O281	O28	0.317700	0.247900	0.341670
O291	O29	0.636500	0.021600	0.134880
O301	O30	0.832100	0.122900	0.316540
O311	O31	0.518500	0.400000	0.089770
O321	O32	0.771300	0.001300	0.992770
O331	O33	0.555800	0.449200	0.181720
O341	O34	0.517400	0.099600	0.061540
O351	O35	0.817700	0.252100	0.341670
O361	O36	0.863500	0.478400	0.634880
O371	O37	0.667900	0.377100	0.816540
O381	O38	0.981500	0.100000	0.589770
O391	O39	0.728700	0.498700	0.492770
O401	O40	0.944200	0.050800	0.681720
O411	O41	0.982600	0.400400	0.561540
O421	O42	0.682300	0.247900	0.841670
O431	O43	0.636500	0.978400	0.365120
O441	O44	0.832100	0.877100	0.183460
O451	O45	0.518500	0.600000	0.410230
O461	O46	0.771300	0.998700	0.507230
O471	O47	0.555800	0.550800	0.318280
O481	O48	0.517400	0.900400	0.438460
O491	O49	0.817700	0.747900	0.158330
O501	O50	0.863500	0.521600	0.865120
O511	O51	0.667900	0.622900	0.683460
O521	O52	0.981500	0.900000	0.910230
O531	O53	0.728700	0.501300	0.007230
O541	O54	0.944200	0.949200	0.818280
O551	O55	0.982600	0.599600	0.938460
O561	O56	0.682300	0.752100	0.658330
