data_YOVPEG_clean_PM
_symmetry_space_group_name_H-M	'P1'
_cell_length_a	14.867000
_cell_length_b	32.323000
_cell_length_c	9.179200
_cell_angle_alpha	90.000000
_cell_angle_beta	104.260000
_cell_angle_gamma	90.000000
_symmetry_Int_Tables_number 1

loop_
_symmetry_equiv_pos_as_xyz
'x,y,z'

loop_
_atom_site_label
_atom_site_type_symbol
_atom_site_fract_x
_atom_site_fract_y
_atom_site_fract_z
Co11	Co1	0.193460	0.124840	0.381810
C11	C1	0.324100	0.167500	0.209000
H11	H1	0.368800	0.173400	0.296900
C21	C2	0.197300	0.148900	0.054800
H21	H2	0.137100	0.139200	0.017300
C31	C3	0.255800	0.161400	0.969800
H31	H3	0.243600	0.161800	0.865500
C41	C4	0.415200	0.192400	0.034300
C51	C5	0.403100	0.221100	0.921000
H41	H4	0.344200	0.226700	0.860900
C61	C6	0.479700	0.241500	0.897900
H51	H5	0.471400	0.260700	0.820200
C71	C7	0.568800	0.234700	0.985600
C81	C8	0.578600	0.204100	0.093800
H61	H6	0.637600	0.198100	0.152600
C91	C9	0.503500	0.182100	0.117700
H71	H7	0.512100	0.160900	0.188100
C101	C10	0.648800	0.260900	0.967600
C111	C11	0.643500	0.302500	0.006000
H81	H8	0.593300	0.311800	0.040800
C121	C12	0.712800	0.330300	0.992700
C131	C13	0.785100	0.314700	0.935600
H91	H9	0.831600	0.332800	0.925000
C141	C14	0.791400	0.273200	0.893400
C151	C15	0.721000	0.246600	0.912900
H101	H10	0.723100	0.218800	0.888300
C161	C16	0.866300	0.258300	0.824900
C171	C17	0.892000	0.216500	0.827600
H111	H11	0.859900	0.197300	0.871200
C181	C18	0.963800	0.202500	0.767500
H121	H12	0.981500	0.174900	0.776000
C191	C19	0.008000	0.230200	0.695300
C201	C20	0.985300	0.271900	0.691900
H131	H13	0.017100	0.290800	0.646500
C211	C21	0.915600	0.285500	0.755900
H141	H14	0.901200	0.313500	0.752800
C221	C22	0.078500	0.180200	0.551200
H151	H15	0.032300	0.160300	0.541300
C231	C23	0.199000	0.212500	0.531200
H161	H16	0.254100	0.218900	0.505700
C241	C24	0.155500	0.237800	0.609900
H171	H17	0.173800	0.264100	0.645800
C251	C25	0.712100	0.373900	0.036700
C261	C26	0.795500	0.393900	0.109100
H181	H18	0.851300	0.379400	0.131600
C271	C27	0.793600	0.435500	0.146400
H191	H19	0.848800	0.448700	0.193100
C281	C28	0.711100	0.457900	0.115500
C291	C29	0.629100	0.437400	0.051000
H201	H20	0.572900	0.451500	0.033700
C301	C30	0.630400	0.396100	0.012200
H211	H21	0.574700	0.382900	0.968400
C311	C31	0.773500	0.529000	0.138700
H221	H22	0.824600	0.523200	0.100800
C321	C32	0.672900	0.559700	0.227700
H231	H23	0.641100	0.580300	0.265200
C331	C33	0.646200	0.520000	0.210300
H241	H24	0.593800	0.508300	0.231900
C341	C34	0.025300	0.100300	0.288300
C351	C35	0.925300	0.089100	0.224100
C361	C36	0.883000	0.093600	0.073000
H251	H25	0.916500	0.104000	0.007900
C371	C37	0.790200	0.082600	0.018200
H261	H26	0.763300	0.085600	0.916000
C381	C38	0.737300	0.067600	0.107200
C391	C39	0.777500	0.063900	0.258500
H271	H27	0.741600	0.055800	0.323300
C401	C40	0.873400	0.072400	0.316700
H281	H28	0.901500	0.066700	0.416900
C411	C41	0.586400	0.075000	0.949000
C421	C42	0.595000	0.114800	0.909300
H291	H29	0.647000	0.129900	0.957400
C431	C43	0.526500	0.133400	0.796700
H301	H30	0.533000	0.160900	0.771300
C441	C44	0.447800	0.111100	0.721500
C451	C45	0.440300	0.070100	0.763000
H311	H31	0.388800	0.054500	0.715800
C461	C46	0.511400	0.051900	0.877700
H321	H32	0.506900	0.024300	0.904100
C471	C47	0.375100	0.132100	0.595000
N11	N1	0.241400	0.152700	0.205400
N21	N2	0.336000	0.173300	0.069600
N31	N3	0.151800	0.176800	0.494800
N41	N4	0.079300	0.216500	0.625500
N51	N5	0.754400	0.566000	0.182100
N61	N6	0.710900	0.500400	0.155100
O11	O1	0.068800	0.087100	0.417100
O21	O2	0.061300	0.123700	0.213400
O31	O3	0.648500	0.054600	0.061800
O41	O4	0.400900	0.162700	0.534200
O51	O5	0.296400	0.114700	0.568800
Co21	Co2	0.806540	0.624840	0.118190
C481	C48	0.675900	0.667500	0.291000
H331	H33	0.631200	0.673400	0.203100
C491	C49	0.802700	0.648900	0.445200
H341	H34	0.862900	0.639200	0.482700
C501	C50	0.744200	0.661400	0.530200
H351	H35	0.756400	0.661800	0.634500
C511	C51	0.584800	0.692400	0.465700
C521	C52	0.596900	0.721100	0.579000
H361	H36	0.655800	0.726700	0.639100
C531	C53	0.520300	0.741500	0.602100
H371	H37	0.528600	0.760700	0.679800
C541	C54	0.431200	0.734700	0.514400
C551	C55	0.421400	0.704100	0.406200
H381	H38	0.362400	0.698100	0.347400
C561	C56	0.496500	0.682100	0.382300
H391	H39	0.487900	0.660900	0.311900
C571	C57	0.351200	0.760900	0.532400
C581	C58	0.356500	0.802500	0.494000
H401	H40	0.406700	0.811800	0.459200
C591	C59	0.287200	0.830300	0.507300
C601	C60	0.214900	0.814700	0.564400
H411	H41	0.168400	0.832800	0.575000
C611	C61	0.208600	0.773200	0.606600
C621	C62	0.279000	0.746600	0.587100
H421	H42	0.276900	0.718800	0.611700
C631	C63	0.133700	0.758300	0.675100
C641	C64	0.108000	0.716500	0.672400
H431	H43	0.140100	0.697300	0.628800
C651	C65	0.036200	0.702500	0.732500
H441	H44	0.018500	0.674900	0.724000
C661	C66	0.992000	0.730200	0.804700
C671	C67	0.014700	0.771900	0.808100
H451	H45	0.982900	0.790800	0.853500
C681	C68	0.084400	0.785500	0.744100
H461	H46	0.098800	0.813500	0.747200
C691	C69	0.921500	0.680200	0.948800
H471	H47	0.967700	0.660300	0.958700
C701	C70	0.801000	0.712500	0.968800
H481	H48	0.745900	0.718900	0.994300
C711	C71	0.844500	0.737800	0.890100
H491	H49	0.826200	0.764100	0.854200
C721	C72	0.287900	0.873900	0.463300
C731	C73	0.204500	0.893900	0.390900
H501	H50	0.148700	0.879400	0.368400
C741	C74	0.206400	0.935500	0.353600
H511	H51	0.151200	0.948700	0.306900
C751	C75	0.288900	0.957900	0.384500
C761	C76	0.370900	0.937400	0.449000
H521	H52	0.427100	0.951500	0.466300
C771	C77	0.369600	0.896100	0.487800
H531	H53	0.425300	0.882900	0.531600
C781	C78	0.226500	0.029000	0.361300
H541	H54	0.175400	0.023200	0.399200
C791	C79	0.327100	0.059700	0.272300
H551	H55	0.358900	0.080300	0.234800
C801	C80	0.353800	0.020000	0.289700
H561	H56	0.406200	0.008300	0.268100
C811	C81	0.974700	0.600300	0.211700
C821	C82	0.074700	0.589100	0.275900
C831	C83	0.117000	0.593600	0.427000
H571	H57	0.083500	0.604000	0.492100
C841	C84	0.209800	0.582600	0.481800
H581	H58	0.236700	0.585600	0.584000
C851	C85	0.262700	0.567600	0.392800
C861	C86	0.222500	0.563900	0.241500
H591	H59	0.258400	0.555800	0.176700
C871	C87	0.126600	0.572400	0.183300
H601	H60	0.098500	0.566700	0.083100
C881	C88	0.413600	0.575000	0.551000
C891	C89	0.405000	0.614800	0.590700
H611	H61	0.353000	0.629900	0.542600
C901	C90	0.473500	0.633400	0.703300
H621	H62	0.467000	0.660900	0.728700
C911	C91	0.552200	0.611100	0.778500
C921	C92	0.559700	0.570100	0.737000
H631	H63	0.611200	0.554500	0.784200
C931	C93	0.488600	0.551900	0.622300
H641	H64	0.493100	0.524300	0.595900
C941	C94	0.624900	0.632100	0.905000
N71	N7	0.758600	0.652700	0.294600
N81	N8	0.664000	0.673300	0.430400
N91	N9	0.848200	0.676800	0.005200
N101	N10	0.920700	0.716500	0.874500
N111	N11	0.245600	0.066000	0.317900
N121	N12	0.289100	0.000400	0.344900
O61	O6	0.931200	0.587100	0.082900
O71	O7	0.938700	0.623700	0.286600
O81	O8	0.351500	0.554600	0.438200
O91	O9	0.599100	0.662700	0.965800
O101	O10	0.703600	0.614700	0.931200
Co31	Co3	0.806540	0.875160	0.618190
C951	C95	0.675900	0.832500	0.791000
H651	H65	0.631200	0.826600	0.703100
C961	C96	0.802700	0.851100	0.945200
H661	H66	0.862900	0.860800	0.982700
C971	C97	0.744200	0.838600	0.030200
H671	H67	0.756400	0.838200	0.134500
C981	C98	0.584800	0.807600	0.965700
C991	C99	0.596900	0.778900	0.079000
H681	H68	0.655800	0.773300	0.139100
C1001	C100	0.520300	0.758500	0.102100
H691	H69	0.528600	0.739300	0.179800
C1011	C101	0.431200	0.765300	0.014400
C1021	C102	0.421400	0.795900	0.906200
H701	H70	0.362400	0.801900	0.847400
C1031	C103	0.496500	0.817900	0.882300
H711	H71	0.487900	0.839100	0.811900
C1041	C104	0.351200	0.739100	0.032400
C1051	C105	0.356500	0.697500	0.994000
H721	H72	0.406700	0.688200	0.959200
C1061	C106	0.287200	0.669700	0.007300
C1071	C107	0.214900	0.685300	0.064400
H731	H73	0.168400	0.667200	0.075000
C1081	C108	0.208600	0.726800	0.106600
C1091	C109	0.279000	0.753400	0.087100
H741	H74	0.276900	0.781200	0.111700
C1101	C110	0.133700	0.741700	0.175100
C1111	C111	0.108000	0.783500	0.172400
H751	H75	0.140100	0.802700	0.128800
C1121	C112	0.036200	0.797500	0.232500
H761	H76	0.018500	0.825100	0.224000
C1131	C113	0.992000	0.769800	0.304700
C1141	C114	0.014700	0.728100	0.308100
H771	H77	0.982900	0.709200	0.353500
C1151	C115	0.084400	0.714500	0.244100
H781	H78	0.098800	0.686500	0.247200
C1161	C116	0.921500	0.819800	0.448800
H791	H79	0.967700	0.839700	0.458700
C1171	C117	0.801000	0.787500	0.468800
H801	H80	0.745900	0.781100	0.494300
C1181	C118	0.844500	0.762200	0.390100
H811	H81	0.826200	0.735900	0.354200
C1191	C119	0.287900	0.626100	0.963300
C1201	C120	0.204500	0.606100	0.890900
H821	H82	0.148700	0.620600	0.868400
C1211	C121	0.206400	0.564500	0.853600
H831	H83	0.151200	0.551300	0.806900
C1221	C122	0.288900	0.542100	0.884500
C1231	C123	0.370900	0.562600	0.949000
H841	H84	0.427100	0.548500	0.966300
C1241	C124	0.369600	0.603900	0.987800
H851	H85	0.425300	0.617100	0.031600
C1251	C125	0.226500	0.471000	0.861300
H861	H86	0.175400	0.476800	0.899200
C1261	C126	0.327100	0.440300	0.772300
H871	H87	0.358900	0.419700	0.734800
C1271	C127	0.353800	0.480000	0.789700
H881	H88	0.406200	0.491700	0.768100
C1281	C128	0.974700	0.899700	0.711700
C1291	C129	0.074700	0.910900	0.775900
C1301	C130	0.117000	0.906400	0.927000
H891	H89	0.083500	0.896000	0.992100
C1311	C131	0.209800	0.917400	0.981800
H901	H90	0.236700	0.914400	0.084000
C1321	C132	0.262700	0.932400	0.892800
C1331	C133	0.222500	0.936100	0.741500
H911	H91	0.258400	0.944200	0.676700
C1341	C134	0.126600	0.927600	0.683300
H921	H92	0.098500	0.933300	0.583100
C1351	C135	0.413600	0.925000	0.051000
C1361	C136	0.405000	0.885200	0.090700
H931	H93	0.353000	0.870100	0.042600
C1371	C137	0.473500	0.866600	0.203300
H941	H94	0.467000	0.839100	0.228700
C1381	C138	0.552200	0.888900	0.278500
C1391	C139	0.559700	0.929900	0.237000
H951	H95	0.611200	0.945500	0.284200
C1401	C140	0.488600	0.948100	0.122300
H961	H96	0.493100	0.975700	0.095900
C1411	C141	0.624900	0.867900	0.405000
N131	N13	0.758600	0.847300	0.794600
N141	N14	0.664000	0.826700	0.930400
N151	N15	0.848200	0.823200	0.505200
N161	N16	0.920700	0.783500	0.374500
N171	N17	0.245600	0.434000	0.817900
N181	N18	0.289100	0.499600	0.844900
O111	O11	0.931200	0.912900	0.582900
O121	O12	0.938700	0.876300	0.786600
O131	O13	0.351500	0.945400	0.938200
O141	O14	0.599100	0.837300	0.465800
O151	O15	0.703600	0.885300	0.431200
Co41	Co4	0.193460	0.375160	0.881810
C1421	C142	0.324100	0.332500	0.709000
H971	H97	0.368800	0.326600	0.796900
C1431	C143	0.197300	0.351100	0.554800
H981	H98	0.137100	0.360800	0.517300
C1441	C144	0.255800	0.338600	0.469800
H991	H99	0.243600	0.338200	0.365500
C1451	C145	0.415200	0.307600	0.534300
C1461	C146	0.403100	0.278900	0.421000
H1001	H100	0.344200	0.273300	0.360900
C1471	C147	0.479700	0.258500	0.397900
H1011	H101	0.471400	0.239300	0.320200
C1481	C148	0.568800	0.265300	0.485600
C1491	C149	0.578600	0.295900	0.593800
H1021	H102	0.637600	0.301900	0.652600
C1501	C150	0.503500	0.317900	0.617700
H1031	H103	0.512100	0.339100	0.688100
C1511	C151	0.648800	0.239100	0.467600
C1521	C152	0.643500	0.197500	0.506000
H1041	H104	0.593300	0.188200	0.540800
C1531	C153	0.712800	0.169700	0.492700
C1541	C154	0.785100	0.185300	0.435600
H1051	H105	0.831600	0.167200	0.425000
C1551	C155	0.791400	0.226800	0.393400
C1561	C156	0.721000	0.253400	0.412900
H1061	H106	0.723100	0.281200	0.388300
C1571	C157	0.866300	0.241700	0.324900
C1581	C158	0.892000	0.283500	0.327600
H1071	H107	0.859900	0.302700	0.371200
C1591	C159	0.963800	0.297500	0.267500
H1081	H108	0.981500	0.325100	0.276000
C1601	C160	0.008000	0.269800	0.195300
C1611	C161	0.985300	0.228100	0.191900
H1091	H109	0.017100	0.209200	0.146500
C1621	C162	0.915600	0.214500	0.255900
H1101	H110	0.901200	0.186500	0.252800
C1631	C163	0.078500	0.319800	0.051200
H1111	H111	0.032300	0.339700	0.041300
C1641	C164	0.199000	0.287500	0.031200
H1121	H112	0.254100	0.281100	0.005700
C1651	C165	0.155500	0.262200	0.109900
H1131	H113	0.173800	0.235900	0.145800
C1661	C166	0.712100	0.126100	0.536700
C1671	C167	0.795500	0.106100	0.609100
H1141	H114	0.851300	0.120600	0.631600
C1681	C168	0.793600	0.064500	0.646400
H1151	H115	0.848800	0.051300	0.693100
C1691	C169	0.711100	0.042100	0.615500
C1701	C170	0.629100	0.062600	0.551000
H1161	H116	0.572900	0.048500	0.533700
C1711	C171	0.630400	0.103900	0.512200
H1171	H117	0.574700	0.117100	0.468400
C1721	C172	0.773500	0.971000	0.638700
H1181	H118	0.824600	0.976800	0.600800
C1731	C173	0.672900	0.940300	0.727700
H1191	H119	0.641100	0.919700	0.765200
C1741	C174	0.646200	0.980000	0.710300
H1201	H120	0.593800	0.991700	0.731900
C1751	C175	0.025300	0.399700	0.788300
C1761	C176	0.925300	0.410900	0.724100
C1771	C177	0.883000	0.406400	0.573000
H1211	H121	0.916500	0.396000	0.507900
C1781	C178	0.790200	0.417400	0.518200
H1221	H122	0.763300	0.414400	0.416000
C1791	C179	0.737300	0.432400	0.607200
C1801	C180	0.777500	0.436100	0.758500
H1231	H123	0.741600	0.444200	0.823300
C1811	C181	0.873400	0.427600	0.816700
H1241	H124	0.901500	0.433300	0.916900
C1821	C182	0.586400	0.425000	0.449000
C1831	C183	0.595000	0.385200	0.409300
H1251	H125	0.647000	0.370100	0.457400
C1841	C184	0.526500	0.366600	0.296700
H1261	H126	0.533000	0.339100	0.271300
C1851	C185	0.447800	0.388900	0.221500
C1861	C186	0.440300	0.429900	0.263000
H1271	H127	0.388800	0.445500	0.215800
C1871	C187	0.511400	0.448100	0.377700
H1281	H128	0.506900	0.475700	0.404100
C1881	C188	0.375100	0.367900	0.095000
N191	N19	0.241400	0.347300	0.705400
N201	N20	0.336000	0.326700	0.569600
N211	N21	0.151800	0.323200	0.994800
N221	N22	0.079300	0.283500	0.125500
N231	N23	0.754400	0.934000	0.682100
N241	N24	0.710900	0.999600	0.655100
O161	O16	0.068800	0.412900	0.917100
O171	O17	0.061300	0.376300	0.713400
O181	O18	0.648500	0.445400	0.561800
O191	O19	0.400900	0.337300	0.034200
O201	O20	0.296400	0.385300	0.068800
