data_YOYPOT_clean_PM
_symmetry_space_group_name_H-M	'P1'
_cell_length_a	17.030000
_cell_length_b	17.030000
_cell_length_c	13.908000
_cell_angle_alpha	90.000000
_cell_angle_beta	90.000000
_cell_angle_gamma	120.000000
_symmetry_Int_Tables_number 1

loop_
_symmetry_equiv_pos_as_xyz
'x,y,z'

loop_
_atom_site_label
_atom_site_type_symbol
_atom_site_fract_x
_atom_site_fract_y
_atom_site_fract_z
O11	O1	0.778000	0.353600	0.680890
N11	N1	0.108500	0.603100	0.913200
N21	N2	0.227400	0.667200	0.014800
C11	C1	0.964500	0.506600	0.831500
H11	H1	0.933000	0.506900	0.886000
C21	C2	0.057900	0.553300	0.830300
C31	C3	0.188100	0.609600	0.941800
H21	H2	0.212500	0.577200	0.913400
C41	C4	0.168500	0.699900	0.034600
C51	C5	0.175700	0.761900	0.104300
H31	H3	0.224300	0.787800	0.146900
C61	C6	0.107700	0.782900	0.107300
H41	H4	0.110200	0.823700	0.153400
C71	C7	0.035000	0.744800	0.043100
H51	H5	0.990600	0.761300	0.047200
C81	C8	0.027000	0.683400	0.973600
H61	H6	0.978900	0.658600	0.930400
C91	C9	0.094200	0.660800	0.971600
O21	O2	0.646400	0.424400	0.680890
N31	N3	0.396900	0.505400	0.913200
N41	N4	0.332800	0.560200	0.014800
C101	C10	0.493400	0.457900	0.831500
H71	H7	0.493100	0.426100	0.886000
C111	C11	0.446700	0.504600	0.830300
C121	C12	0.390400	0.578500	0.941800
H81	H8	0.422800	0.635300	0.913400
C131	C13	0.300100	0.468600	0.034600
C141	C14	0.238100	0.413800	0.104300
H91	H9	0.212200	0.436500	0.146900
C151	C15	0.217100	0.324800	0.107300
H101	H10	0.176300	0.286500	0.153400
C161	C16	0.255200	0.290200	0.043100
H111	H11	0.238700	0.229300	0.047200
C171	C17	0.316600	0.343600	0.973600
H121	H12	0.341400	0.320300	0.930400
C181	C18	0.339200	0.433400	0.971600
O31	O3	0.575600	0.222000	0.680890
N51	N5	0.494600	0.891500	0.913200
N61	N6	0.439800	0.772600	0.014800
C191	C19	0.542100	0.035500	0.831500
H131	H13	0.573900	0.067000	0.886000
C201	C20	0.495400	0.942100	0.830300
C211	C21	0.421500	0.811900	0.941800
H141	H14	0.364700	0.787500	0.913400
C221	C22	0.531400	0.831500	0.034600
C231	C23	0.586200	0.824300	0.104300
H151	H15	0.563500	0.775700	0.146900
C241	C24	0.675200	0.892300	0.107300
H161	H16	0.713500	0.889800	0.153400
C251	C25	0.709800	0.965000	0.043100
H171	H17	0.770700	0.009400	0.047200
C261	C26	0.656400	0.973000	0.973600
H181	H18	0.679700	0.021100	0.930400
C271	C27	0.566600	0.905800	0.971600
O41	O4	0.646400	0.222000	0.819110
N71	N7	0.396900	0.891500	0.586800
N81	N8	0.332800	0.772600	0.485200
C281	C28	0.493400	0.035500	0.668500
H191	H19	0.493100	0.067000	0.614000
C291	C29	0.446700	0.942100	0.669700
C301	C30	0.390400	0.811900	0.558200
H201	H20	0.422800	0.787500	0.586600
C311	C31	0.300100	0.831500	0.465400
C321	C32	0.238100	0.824300	0.395700
H211	H21	0.212200	0.775700	0.353100
C331	C33	0.217100	0.892300	0.392700
H221	H22	0.176300	0.889800	0.346600
C341	C34	0.255200	0.965000	0.456900
H231	H23	0.238700	0.009400	0.452800
C351	C35	0.316600	0.973000	0.526400
H241	H24	0.341400	0.021100	0.569600
C361	C36	0.339200	0.905800	0.528400
O51	O5	0.575600	0.353600	0.819110
N91	N9	0.494600	0.603100	0.586800
N101	N10	0.439800	0.667200	0.485200
C371	C37	0.542100	0.506600	0.668500
H251	H25	0.573900	0.506900	0.614000
C381	C38	0.495400	0.553300	0.669700
C391	C39	0.421500	0.609600	0.558200
H261	H26	0.364700	0.577200	0.586600
C401	C40	0.531400	0.699900	0.465400
C411	C41	0.586200	0.761900	0.395700
H271	H27	0.563500	0.787800	0.353100
C421	C42	0.675200	0.782900	0.392700
H281	H28	0.713500	0.823700	0.346600
C431	C43	0.709800	0.744800	0.456900
H291	H29	0.770700	0.761300	0.452800
C441	C44	0.656400	0.683400	0.526400
H301	H30	0.679700	0.658600	0.569600
C451	C45	0.566600	0.660800	0.528400
O61	O6	0.778000	0.424400	0.819110
N111	N11	0.108500	0.505400	0.586800
N121	N12	0.227400	0.560200	0.485200
C461	C46	0.964500	0.457900	0.668500
H311	H31	0.933000	0.426100	0.614000
C471	C47	0.057900	0.504600	0.669700
C481	C48	0.188100	0.578500	0.558200
H321	H32	0.212500	0.635300	0.586600
C491	C49	0.168500	0.468600	0.465400
C501	C50	0.175700	0.413800	0.395700
H331	H33	0.224300	0.436500	0.353100
C511	C51	0.107700	0.324800	0.392700
H341	H34	0.110200	0.286500	0.346600
C521	C52	0.035000	0.290200	0.456900
H351	H35	0.990600	0.229300	0.452800
C531	C53	0.027000	0.343600	0.526400
H361	H36	0.978900	0.320300	0.569600
C541	C54	0.094200	0.433400	0.528400
O71	O7	0.222000	0.646400	0.319110
N131	N13	0.891500	0.396900	0.086800
N141	N14	0.772600	0.332800	0.985200
C551	C55	0.035500	0.493400	0.168500
H371	H37	0.067000	0.493100	0.114000
C561	C56	0.942100	0.446700	0.169700
C571	C57	0.811900	0.390400	0.058200
H381	H38	0.787500	0.422800	0.086600
C581	C58	0.831500	0.300100	0.965400
C591	C59	0.824300	0.238100	0.895700
H391	H39	0.775700	0.212200	0.853100
C601	C60	0.892300	0.217100	0.892700
H401	H40	0.889800	0.176300	0.846600
C611	C61	0.965000	0.255200	0.956900
H411	H41	0.009400	0.238700	0.952800
C621	C62	0.973000	0.316600	0.026400
H421	H42	0.021100	0.341400	0.069600
C631	C63	0.905800	0.339200	0.028400
O81	O8	0.353600	0.575600	0.319110
N151	N15	0.603100	0.494600	0.086800
N161	N16	0.667200	0.439800	0.985200
C641	C64	0.506600	0.542100	0.168500
H431	H43	0.506900	0.573900	0.114000
C651	C65	0.553300	0.495400	0.169700
C661	C66	0.609600	0.421500	0.058200
H441	H44	0.577200	0.364700	0.086600
C671	C67	0.699900	0.531400	0.965400
C681	C68	0.761900	0.586200	0.895700
H451	H45	0.787800	0.563500	0.853100
C691	C69	0.782900	0.675200	0.892700
H461	H46	0.823700	0.713500	0.846600
C701	C70	0.744800	0.709800	0.956900
H471	H47	0.761300	0.770700	0.952800
C711	C71	0.683400	0.656400	0.026400
H481	H48	0.658600	0.679700	0.069600
C721	C72	0.660800	0.566600	0.028400
O91	O9	0.424400	0.778000	0.319110
N171	N17	0.505400	0.108500	0.086800
N181	N18	0.560200	0.227400	0.985200
C731	C73	0.457900	0.964500	0.168500
H491	H49	0.426100	0.933000	0.114000
C741	C74	0.504600	0.057900	0.169700
C751	C75	0.578500	0.188100	0.058200
H501	H50	0.635300	0.212500	0.086600
C761	C76	0.468600	0.168500	0.965400
C771	C77	0.413800	0.175700	0.895700
H511	H51	0.436500	0.224300	0.853100
C781	C78	0.324800	0.107700	0.892700
H521	H52	0.286500	0.110200	0.846600
C791	C79	0.290200	0.035000	0.956900
H531	H53	0.229300	0.990600	0.952800
C801	C80	0.343600	0.027000	0.026400
H541	H54	0.320300	0.978900	0.069600
C811	C81	0.433400	0.094200	0.028400
O101	O10	0.353600	0.778000	0.180890
N191	N19	0.603100	0.108500	0.413200
N201	N20	0.667200	0.227400	0.514800
C821	C82	0.506600	0.964500	0.331500
H551	H55	0.506900	0.933000	0.386000
C831	C83	0.553300	0.057900	0.330300
C841	C84	0.609600	0.188100	0.441800
H561	H56	0.577200	0.212500	0.413400
C851	C85	0.699900	0.168500	0.534600
C861	C86	0.761900	0.175700	0.604300
H571	H57	0.787800	0.224300	0.646900
C871	C87	0.782900	0.107700	0.607300
H581	H58	0.823700	0.110200	0.653400
C881	C88	0.744800	0.035000	0.543100
H591	H59	0.761300	0.990600	0.547200
C891	C89	0.683400	0.027000	0.473600
H601	H60	0.658600	0.978900	0.430400
C901	C90	0.660800	0.094200	0.471600
O111	O11	0.424400	0.646400	0.180890
N211	N21	0.505400	0.396900	0.413200
N221	N22	0.560200	0.332800	0.514800
C911	C91	0.457900	0.493400	0.331500
H611	H61	0.426100	0.493100	0.386000
C921	C92	0.504600	0.446700	0.330300
C931	C93	0.578500	0.390400	0.441800
H621	H62	0.635300	0.422800	0.413400
C941	C94	0.468600	0.300100	0.534600
C951	C95	0.413800	0.238100	0.604300
H631	H63	0.436500	0.212200	0.646900
C961	C96	0.324800	0.217100	0.607300
H641	H64	0.286500	0.176300	0.653400
C971	C97	0.290200	0.255200	0.543100
H651	H65	0.229300	0.238700	0.547200
C981	C98	0.343600	0.316600	0.473600
H661	H66	0.320300	0.341400	0.430400
C991	C99	0.433400	0.339200	0.471600
O121	O12	0.222000	0.575600	0.180890
N231	N23	0.891500	0.494600	0.413200
N241	N24	0.772600	0.439800	0.514800
C1001	C100	0.035500	0.542100	0.331500
H671	H67	0.067000	0.573900	0.386000
C1011	C101	0.942100	0.495400	0.330300
C1021	C102	0.811900	0.421500	0.441800
H681	H68	0.787500	0.364700	0.413400
C1031	C103	0.831500	0.531400	0.534600
C1041	C104	0.824300	0.586200	0.604300
H691	H69	0.775700	0.563500	0.646900
C1051	C105	0.892300	0.675200	0.607300
H701	H70	0.889800	0.713500	0.653400
C1061	C106	0.965000	0.709800	0.543100
H711	H71	0.009400	0.770700	0.547200
C1071	C107	0.973000	0.656400	0.473600
H721	H72	0.021100	0.679700	0.430400
C1081	C108	0.905800	0.566600	0.471600
Co11	Co1	0.666670	0.333330	0.602020
Co21	Co2	0.666670	0.333330	0.897980
Co31	Co3	0.333330	0.666670	0.397980
Co41	Co4	0.333330	0.666670	0.102020
C1091	C109	0.815600	0.407800	0.750000
C1101	C110	0.918200	0.459100	0.750000
C1111	C111	0.105000	0.552500	0.750000
H731	H73	0.168000	0.584000	0.750000
C1121	C112	0.592200	0.407800	0.750000
C1131	C113	0.540900	0.459100	0.750000
C1141	C114	0.447500	0.552500	0.750000
H741	H74	0.416000	0.584000	0.750000
C1151	C115	0.592200	0.184400	0.750000
C1161	C116	0.540900	0.081800	0.750000
C1171	C117	0.447500	0.895000	0.750000
H751	H75	0.416000	0.832000	0.750000
C1181	C118	0.184400	0.592200	0.250000
C1191	C119	0.081800	0.540900	0.250000
C1201	C120	0.895000	0.447500	0.250000
H761	H76	0.832000	0.416000	0.250000
C1211	C121	0.407800	0.592200	0.250000
C1221	C122	0.459100	0.540900	0.250000
C1231	C123	0.552500	0.447500	0.250000
H771	H77	0.584000	0.416000	0.250000
C1241	C124	0.407800	0.815600	0.250000
C1251	C125	0.459100	0.918200	0.250000
C1261	C126	0.552500	0.105000	0.250000
H781	H78	0.584000	0.168000	0.250000
