data_YOYPEJ_clean_PM
_symmetry_space_group_name_H-M	'P1'
_cell_length_a	16.946000
_cell_length_b	16.946000
_cell_length_c	13.838000
_cell_angle_alpha	90.000000
_cell_angle_beta	90.000000
_cell_angle_gamma	120.000000
_symmetry_Int_Tables_number 1

loop_
_symmetry_equiv_pos_as_xyz
'x,y,z'

loop_
_atom_site_label
_atom_site_type_symbol
_atom_site_fract_x
_atom_site_fract_y
_atom_site_fract_z
O11	O1	0.776760	0.423490	0.680600
N11	N1	0.109780	0.506200	0.913940
N21	N2	0.228250	0.561560	0.015930
C11	C1	0.964330	0.458380	0.832540
H11	H1	0.932900	0.427300	0.887800
C21	C2	0.057990	0.504730	0.831070
C31	C3	0.189700	0.578760	0.943070
H21	H2	0.214900	0.635700	0.913900
C41	C4	0.169020	0.469550	0.038030
C51	C5	0.174590	0.414040	0.108520
H31	H3	0.223600	0.436400	0.151100
C61	C6	0.105400	0.325340	0.113100
H41	H4	0.107400	0.287200	0.160100
C71	C7	0.031400	0.290400	0.048400
H51	H5	0.986000	0.229600	0.053400
C81	C8	0.024620	0.343870	0.978010
H61	H6	0.975800	0.320900	0.935200
C91	C9	0.094350	0.433750	0.974210
O21	O2	0.576510	0.353270	0.680600
N31	N3	0.493800	0.603580	0.913940
N41	N4	0.438440	0.666690	0.015930
C101	C10	0.541620	0.505950	0.832540
H71	H7	0.572700	0.505600	0.887800
C111	C11	0.495270	0.553260	0.831070
C121	C12	0.421240	0.610940	0.943070
H81	H8	0.364300	0.579200	0.913900
C131	C13	0.530450	0.699470	0.038030
C141	C14	0.585960	0.760550	0.108520
H91	H9	0.563600	0.787200	0.151100
C151	C15	0.674660	0.780060	0.113100
H101	H10	0.712800	0.820200	0.160100
C161	C16	0.709600	0.741000	0.048400
H111	H11	0.770400	0.756400	0.053400
C171	C17	0.656130	0.680750	0.978010
H121	H12	0.679100	0.654900	0.935200
C181	C18	0.566250	0.660600	0.974210
O31	O3	0.646730	0.223240	0.680600
N51	N5	0.396420	0.890220	0.913940
N61	N6	0.333310	0.771750	0.015930
C191	C19	0.494050	0.035670	0.832540
H131	H13	0.494400	0.067100	0.887800
C201	C20	0.446740	0.942010	0.831070
C211	C21	0.389060	0.810300	0.943070
H141	H14	0.420800	0.785100	0.913900
C221	C22	0.300530	0.830980	0.038030
C231	C23	0.239450	0.825410	0.108520
H151	H15	0.212800	0.776400	0.151100
C241	C24	0.219940	0.894600	0.113100
H161	H16	0.179800	0.892600	0.160100
C251	C25	0.259000	0.968600	0.048400
H171	H17	0.243600	0.014000	0.053400
C261	C26	0.319250	0.975380	0.978010
H181	H18	0.345100	0.024200	0.935200
C271	C27	0.339400	0.905650	0.974210
O41	O4	0.576510	0.223240	0.819400
N71	N7	0.493800	0.890220	0.586060
N81	N8	0.438440	0.771750	0.484070
C281	C28	0.541620	0.035670	0.667460
H191	H19	0.572700	0.067100	0.612200
C291	C29	0.495270	0.942010	0.668930
C301	C30	0.421240	0.810300	0.556930
H201	H20	0.364300	0.785100	0.586100
C311	C31	0.530450	0.830980	0.461970
C321	C32	0.585960	0.825410	0.391480
H211	H21	0.563600	0.776400	0.348900
C331	C33	0.674660	0.894600	0.386900
H221	H22	0.712800	0.892600	0.339900
C341	C34	0.709600	0.968600	0.451600
H231	H23	0.770400	0.014000	0.446600
C351	C35	0.656130	0.975380	0.521990
H241	H24	0.679100	0.024200	0.564800
C361	C36	0.566250	0.905650	0.525790
O51	O5	0.646730	0.423490	0.819400
N91	N9	0.396420	0.506200	0.586060
N101	N10	0.333310	0.561560	0.484070
C371	C37	0.494050	0.458380	0.667460
H251	H25	0.494400	0.427300	0.612200
C381	C38	0.446740	0.504730	0.668930
C391	C39	0.389060	0.578760	0.556930
H261	H26	0.420800	0.635700	0.586100
C401	C40	0.300530	0.469550	0.461970
C411	C41	0.239450	0.414040	0.391480
H271	H27	0.212800	0.436400	0.348900
C421	C42	0.219940	0.325340	0.386900
H281	H28	0.179800	0.287200	0.339900
C431	C43	0.259000	0.290400	0.451600
H291	H29	0.243600	0.229600	0.446600
C441	C44	0.319250	0.343870	0.521990
H301	H30	0.345100	0.320900	0.564800
C451	C45	0.339400	0.433750	0.525790
O61	O6	0.776760	0.353270	0.819400
N111	N11	0.109780	0.603580	0.586060
N121	N12	0.228250	0.666690	0.484070
C461	C46	0.964330	0.505950	0.667460
H311	H31	0.932900	0.505600	0.612200
C471	C47	0.057990	0.553260	0.668930
C481	C48	0.189700	0.610940	0.556930
H321	H32	0.214900	0.579200	0.586100
C491	C49	0.169020	0.699470	0.461970
C501	C50	0.174590	0.760550	0.391480
H331	H33	0.223600	0.787200	0.348900
C511	C51	0.105400	0.780060	0.386900
H341	H34	0.107400	0.820200	0.339900
C521	C52	0.031400	0.741000	0.451600
H351	H35	0.986000	0.756400	0.446600
C531	C53	0.024620	0.680750	0.521990
H361	H36	0.975800	0.654900	0.564800
C541	C54	0.094350	0.660600	0.525790
O71	O7	0.223240	0.576510	0.319400
N131	N13	0.890220	0.493800	0.086060
N141	N14	0.771750	0.438440	0.984070
C551	C55	0.035670	0.541620	0.167460
H371	H37	0.067100	0.572700	0.112200
C561	C56	0.942010	0.495270	0.168930
C571	C57	0.810300	0.421240	0.056930
H381	H38	0.785100	0.364300	0.086100
C581	C58	0.830980	0.530450	0.961970
C591	C59	0.825410	0.585960	0.891480
H391	H39	0.776400	0.563600	0.848900
C601	C60	0.894600	0.674660	0.886900
H401	H40	0.892600	0.712800	0.839900
C611	C61	0.968600	0.709600	0.951600
H411	H41	0.014000	0.770400	0.946600
C621	C62	0.975380	0.656130	0.021990
H421	H42	0.024200	0.679100	0.064800
C631	C63	0.905650	0.566250	0.025790
O81	O8	0.423490	0.646730	0.319400
N151	N15	0.506200	0.396420	0.086060
N161	N16	0.561560	0.333310	0.984070
C641	C64	0.458380	0.494050	0.167460
H431	H43	0.427300	0.494400	0.112200
C651	C65	0.504730	0.446740	0.168930
C661	C66	0.578760	0.389060	0.056930
H441	H44	0.635700	0.420800	0.086100
C671	C67	0.469550	0.300530	0.961970
C681	C68	0.414040	0.239450	0.891480
H451	H45	0.436400	0.212800	0.848900
C691	C69	0.325340	0.219940	0.886900
H461	H46	0.287200	0.179800	0.839900
C701	C70	0.290400	0.259000	0.951600
H471	H47	0.229600	0.243600	0.946600
C711	C71	0.343870	0.319250	0.021990
H481	H48	0.320900	0.345100	0.064800
C721	C72	0.433750	0.339400	0.025790
O91	O9	0.353270	0.776760	0.319400
N171	N17	0.603580	0.109780	0.086060
N181	N18	0.666690	0.228250	0.984070
C731	C73	0.505950	0.964330	0.167460
H491	H49	0.505600	0.932900	0.112200
C741	C74	0.553260	0.057990	0.168930
C751	C75	0.610940	0.189700	0.056930
H501	H50	0.579200	0.214900	0.086100
C761	C76	0.699470	0.169020	0.961970
C771	C77	0.760550	0.174590	0.891480
H511	H51	0.787200	0.223600	0.848900
C781	C78	0.780060	0.105400	0.886900
H521	H52	0.820200	0.107400	0.839900
C791	C79	0.741000	0.031400	0.951600
H531	H53	0.756400	0.986000	0.946600
C801	C80	0.680750	0.024620	0.021990
H541	H54	0.654900	0.975800	0.064800
C811	C81	0.660600	0.094350	0.025790
O101	O10	0.423490	0.776760	0.180600
N191	N19	0.506200	0.109780	0.413940
N201	N20	0.561560	0.228250	0.515930
C821	C82	0.458380	0.964330	0.332540
H551	H55	0.427300	0.932900	0.387800
C831	C83	0.504730	0.057990	0.331070
C841	C84	0.578760	0.189700	0.443070
H561	H56	0.635700	0.214900	0.413900
C851	C85	0.469550	0.169020	0.538030
C861	C86	0.414040	0.174590	0.608520
H571	H57	0.436400	0.223600	0.651100
C871	C87	0.325340	0.105400	0.613100
H581	H58	0.287200	0.107400	0.660100
C881	C88	0.290400	0.031400	0.548400
H591	H59	0.229600	0.986000	0.553400
C891	C89	0.343870	0.024620	0.478010
H601	H60	0.320900	0.975800	0.435200
C901	C90	0.433750	0.094350	0.474210
O111	O11	0.353270	0.576510	0.180600
N211	N21	0.603580	0.493800	0.413940
N221	N22	0.666690	0.438440	0.515930
C911	C91	0.505950	0.541620	0.332540
H611	H61	0.505600	0.572700	0.387800
C921	C92	0.553260	0.495270	0.331070
C931	C93	0.610940	0.421240	0.443070
H621	H62	0.579200	0.364300	0.413900
C941	C94	0.699470	0.530450	0.538030
C951	C95	0.760550	0.585960	0.608520
H631	H63	0.787200	0.563600	0.651100
C961	C96	0.780060	0.674660	0.613100
H641	H64	0.820200	0.712800	0.660100
C971	C97	0.741000	0.709600	0.548400
H651	H65	0.756400	0.770400	0.553400
C981	C98	0.680750	0.656130	0.478010
H661	H66	0.654900	0.679100	0.435200
C991	C99	0.660600	0.566250	0.474210
O121	O12	0.223240	0.646730	0.180600
N231	N23	0.890220	0.396420	0.413940
N241	N24	0.771750	0.333310	0.515930
C1001	C100	0.035670	0.494050	0.332540
H671	H67	0.067100	0.494400	0.387800
C1011	C101	0.942010	0.446740	0.331070
C1021	C102	0.810300	0.389060	0.443070
H681	H68	0.785100	0.420800	0.413900
C1031	C103	0.830980	0.300530	0.538030
C1041	C104	0.825410	0.239450	0.608520
H691	H69	0.776400	0.212800	0.651100
C1051	C105	0.894600	0.219940	0.613100
H701	H70	0.892600	0.179800	0.660100
C1061	C106	0.968600	0.259000	0.548400
H711	H71	0.014000	0.243600	0.553400
C1071	C107	0.975380	0.319250	0.478010
H721	H72	0.024200	0.345100	0.435200
C1081	C108	0.905650	0.339400	0.474210
Ni11	Ni1	0.666670	0.333330	0.601590
Ni21	Ni2	0.666670	0.333330	0.898410
Ni31	Ni3	0.333330	0.666670	0.398410
Ni41	Ni4	0.333330	0.666670	0.101590
C1091	C109	0.814970	0.407490	0.750000
C1101	C110	0.917140	0.458570	0.750000
C1111	C111	0.106400	0.553200	0.750000
H731	H73	0.169800	0.584900	0.750000
C1121	C112	0.592520	0.407490	0.750000
C1131	C113	0.541430	0.458570	0.750000
C1141	C114	0.446800	0.553200	0.750000
H741	H74	0.415100	0.584900	0.750000
C1151	C115	0.592510	0.185030	0.750000
C1161	C116	0.541430	0.082860	0.750000
C1171	C117	0.446800	0.893600	0.750000
H751	H75	0.415100	0.830200	0.750000
C1181	C118	0.185030	0.592520	0.250000
C1191	C119	0.082860	0.541430	0.250000
C1201	C120	0.893600	0.446800	0.250000
H761	H76	0.830200	0.415100	0.250000
C1211	C121	0.407480	0.592510	0.250000
C1221	C122	0.458570	0.541430	0.250000
C1231	C123	0.553200	0.446800	0.250000
H771	H77	0.584900	0.415100	0.250000
C1241	C124	0.407490	0.814970	0.250000
C1251	C125	0.458570	0.917140	0.250000
C1261	C126	0.553200	0.106400	0.250000
H781	H78	0.584900	0.169800	0.250000
