data_YOYPAF_clean_PM
_symmetry_space_group_name_H-M	'P1'
_cell_length_a	16.870000
_cell_length_b	16.870000
_cell_length_c	13.886000
_cell_angle_alpha	90.000000
_cell_angle_beta	90.000000
_cell_angle_gamma	120.000000
_symmetry_Int_Tables_number 1

loop_
_symmetry_equiv_pos_as_xyz
'x,y,z'

loop_
_atom_site_label
_atom_site_type_symbol
_atom_site_fract_x
_atom_site_fract_y
_atom_site_fract_z
O11	O1	0.777200	0.352900	0.181000
N11	N1	0.111200	0.605400	0.413400
N21	N2	0.228100	0.667300	0.517300
C11	C1	0.966000	0.507500	0.331700
H11	H1	0.934400	0.507700	0.386400
C21	C2	0.060100	0.554800	0.330500
C31	C3	0.190400	0.610900	0.444200
H21	H2	0.215400	0.578100	0.416400
C41	C4	0.170900	0.702800	0.535800
C51	C5	0.178500	0.766400	0.604200
H31	H3	0.227100	0.792400	0.647300
C61	C6	0.110100	0.789300	0.605300
H41	H4	0.112100	0.830100	0.651600
C71	C7	0.038100	0.752800	0.538700
H51	H5	0.994500	0.771100	0.540800
C81	C8	0.030600	0.690200	0.469800
H61	H6	0.983500	0.666600	0.424800
C91	C9	0.097000	0.664300	0.471400
O21	O2	0.647100	0.424300	0.181000
N31	N3	0.394600	0.505800	0.413400
N41	N4	0.332700	0.560800	0.517300
C101	C10	0.492500	0.458500	0.331700
H71	H7	0.492300	0.426700	0.386400
C111	C11	0.445200	0.505300	0.330500
C121	C12	0.389100	0.579500	0.444200
H81	H8	0.421900	0.637300	0.416400
C131	C13	0.297200	0.468100	0.535800
C141	C14	0.233600	0.412100	0.604200
H91	H9	0.207600	0.434700	0.647300
C151	C15	0.210700	0.320800	0.605300
H101	H10	0.169900	0.282000	0.651600
C161	C16	0.247200	0.285300	0.538700
H111	H11	0.228900	0.223400	0.540800
C171	C17	0.309800	0.340400	0.469800
H121	H12	0.333400	0.316900	0.424800
C181	C18	0.335700	0.432700	0.471400
O31	O3	0.575700	0.222800	0.181000
N51	N5	0.494200	0.888800	0.413400
N61	N6	0.439200	0.771900	0.517300
C191	C19	0.541500	0.034000	0.331700
H131	H13	0.573300	0.065600	0.386400
C201	C20	0.494700	0.939900	0.330500
C211	C21	0.420500	0.809600	0.444200
H141	H14	0.362700	0.784600	0.416400
C221	C22	0.531900	0.829100	0.535800
C231	C23	0.587900	0.821500	0.604200
H151	H15	0.565300	0.772900	0.647300
C241	C24	0.679200	0.889900	0.605300
H161	H16	0.718000	0.887900	0.651600
C251	C25	0.714700	0.961900	0.538700
H171	H17	0.776600	0.005500	0.540800
C261	C26	0.659600	0.969400	0.469800
H181	H18	0.683100	0.016500	0.424800
C271	C27	0.567300	0.903000	0.471400
O41	O4	0.647100	0.222800	0.319000
N71	N7	0.394600	0.888800	0.086600
N81	N8	0.332700	0.771900	0.982700
C281	C28	0.492500	0.034000	0.168300
H191	H19	0.492300	0.065600	0.113600
C291	C29	0.445200	0.939900	0.169500
C301	C30	0.389100	0.809600	0.055800
H201	H20	0.421900	0.784600	0.083600
C311	C31	0.297200	0.829100	0.964200
C321	C32	0.233600	0.821500	0.895800
H211	H21	0.207600	0.772900	0.852700
C331	C33	0.210700	0.889900	0.894700
H221	H22	0.169900	0.887900	0.848400
C341	C34	0.247200	0.961900	0.961300
H231	H23	0.228900	0.005500	0.959200
C351	C35	0.309800	0.969400	0.030200
H241	H24	0.333400	0.016500	0.075200
C361	C36	0.335700	0.903000	0.028600
O51	O5	0.575700	0.352900	0.319000
N91	N9	0.494200	0.605400	0.086600
N101	N10	0.439200	0.667300	0.982700
C371	C37	0.541500	0.507500	0.168300
H251	H25	0.573300	0.507700	0.113600
C381	C38	0.494700	0.554800	0.169500
C391	C39	0.420500	0.610900	0.055800
H261	H26	0.362700	0.578100	0.083600
C401	C40	0.531900	0.702800	0.964200
C411	C41	0.587900	0.766400	0.895800
H271	H27	0.565300	0.792400	0.852700
C421	C42	0.679200	0.789300	0.894700
H281	H28	0.718000	0.830100	0.848400
C431	C43	0.714700	0.752800	0.961300
H291	H29	0.776600	0.771100	0.959200
C441	C44	0.659600	0.690200	0.030200
H301	H30	0.683100	0.666600	0.075200
C451	C45	0.567300	0.664300	0.028600
O61	O6	0.777200	0.424300	0.319000
N111	N11	0.111200	0.505800	0.086600
N121	N12	0.228100	0.560800	0.982700
C461	C46	0.966000	0.458500	0.168300
H311	H31	0.934400	0.426700	0.113600
C471	C47	0.060100	0.505300	0.169500
C481	C48	0.190400	0.579500	0.055800
H321	H32	0.215400	0.637300	0.083600
C491	C49	0.170900	0.468100	0.964200
C501	C50	0.178500	0.412100	0.895800
H331	H33	0.227100	0.434700	0.852700
C511	C51	0.110100	0.320800	0.894700
H341	H34	0.112100	0.282000	0.848400
C521	C52	0.038100	0.285300	0.961300
H351	H35	0.994500	0.223400	0.959200
C531	C53	0.030600	0.340400	0.030200
H361	H36	0.983500	0.316900	0.075200
C541	C54	0.097000	0.432700	0.028600
O71	O7	0.222800	0.647100	0.819000
N131	N13	0.888800	0.394600	0.586600
N141	N14	0.771900	0.332700	0.482700
C551	C55	0.034000	0.492500	0.668300
H371	H37	0.065600	0.492300	0.613600
C561	C56	0.939900	0.445200	0.669500
C571	C57	0.809600	0.389100	0.555800
H381	H38	0.784600	0.421900	0.583600
C581	C58	0.829100	0.297200	0.464200
C591	C59	0.821500	0.233600	0.395800
H391	H39	0.772900	0.207600	0.352700
C601	C60	0.889900	0.210700	0.394700
H401	H40	0.887900	0.169900	0.348400
C611	C61	0.961900	0.247200	0.461300
H411	H41	0.005500	0.228900	0.459200
C621	C62	0.969400	0.309800	0.530200
H421	H42	0.016500	0.333400	0.575200
C631	C63	0.903000	0.335700	0.528600
O81	O8	0.352900	0.575700	0.819000
N151	N15	0.605400	0.494200	0.586600
N161	N16	0.667300	0.439200	0.482700
C641	C64	0.507500	0.541500	0.668300
H431	H43	0.507700	0.573300	0.613600
C651	C65	0.554800	0.494700	0.669500
C661	C66	0.610900	0.420500	0.555800
H441	H44	0.578100	0.362700	0.583600
C671	C67	0.702800	0.531900	0.464200
C681	C68	0.766400	0.587900	0.395800
H451	H45	0.792400	0.565300	0.352700
C691	C69	0.789300	0.679200	0.394700
H461	H46	0.830100	0.718000	0.348400
C701	C70	0.752800	0.714700	0.461300
H471	H47	0.771100	0.776600	0.459200
C711	C71	0.690200	0.659600	0.530200
H481	H48	0.666600	0.683100	0.575200
C721	C72	0.664300	0.567300	0.528600
O91	O9	0.424300	0.777200	0.819000
N171	N17	0.505800	0.111200	0.586600
N181	N18	0.560800	0.228100	0.482700
C731	C73	0.458500	0.966000	0.668300
H491	H49	0.426700	0.934400	0.613600
C741	C74	0.505300	0.060100	0.669500
C751	C75	0.579500	0.190400	0.555800
H501	H50	0.637300	0.215400	0.583600
C761	C76	0.468100	0.170900	0.464200
C771	C77	0.412100	0.178500	0.395800
H511	H51	0.434700	0.227100	0.352700
C781	C78	0.320800	0.110100	0.394700
H521	H52	0.282000	0.112100	0.348400
C791	C79	0.285300	0.038100	0.461300
H531	H53	0.223400	0.994500	0.459200
C801	C80	0.340400	0.030600	0.530200
H541	H54	0.316900	0.983500	0.575200
C811	C81	0.432700	0.097000	0.528600
O101	O10	0.352900	0.777200	0.681000
N191	N19	0.605400	0.111200	0.913400
N201	N20	0.667300	0.228100	0.017300
C821	C82	0.507500	0.966000	0.831700
H551	H55	0.507700	0.934400	0.886400
C831	C83	0.554800	0.060100	0.830500
C841	C84	0.610900	0.190400	0.944200
H561	H56	0.578100	0.215400	0.916400
C851	C85	0.702800	0.170900	0.035800
C861	C86	0.766400	0.178500	0.104200
H571	H57	0.792400	0.227100	0.147300
C871	C87	0.789300	0.110100	0.105300
H581	H58	0.830100	0.112100	0.151600
C881	C88	0.752800	0.038100	0.038700
H591	H59	0.771100	0.994500	0.040800
C891	C89	0.690200	0.030600	0.969800
H601	H60	0.666600	0.983500	0.924800
C901	C90	0.664300	0.097000	0.971400
O111	O11	0.424300	0.647100	0.681000
N211	N21	0.505800	0.394600	0.913400
N221	N22	0.560800	0.332700	0.017300
C911	C91	0.458500	0.492500	0.831700
H611	H61	0.426700	0.492300	0.886400
C921	C92	0.505300	0.445200	0.830500
C931	C93	0.579500	0.389100	0.944200
H621	H62	0.637300	0.421900	0.916400
C941	C94	0.468100	0.297200	0.035800
C951	C95	0.412100	0.233600	0.104200
H631	H63	0.434700	0.207600	0.147300
C961	C96	0.320800	0.210700	0.105300
H641	H64	0.282000	0.169900	0.151600
C971	C97	0.285300	0.247200	0.038700
H651	H65	0.223400	0.228900	0.040800
C981	C98	0.340400	0.309800	0.969800
H661	H66	0.316900	0.333400	0.924800
C991	C99	0.432700	0.335700	0.971400
O121	O12	0.222800	0.575700	0.681000
N231	N23	0.888800	0.494200	0.913400
N241	N24	0.771900	0.439200	0.017300
C1001	C100	0.034000	0.541500	0.831700
H671	H67	0.065600	0.573300	0.886400
C1011	C101	0.939900	0.494700	0.830500
C1021	C102	0.809600	0.420500	0.944200
H681	H68	0.784600	0.362700	0.916400
C1031	C103	0.829100	0.531900	0.035800
C1041	C104	0.821500	0.587900	0.104200
H691	H69	0.772900	0.565300	0.147300
C1051	C105	0.889900	0.679200	0.105300
H701	H70	0.887900	0.718000	0.151600
C1061	C106	0.961900	0.714700	0.038700
H711	H71	0.005500	0.776600	0.040800
C1071	C107	0.969400	0.659600	0.969800
H721	H72	0.016500	0.683100	0.924800
C1081	C108	0.903000	0.567300	0.971400
Ni11	Ni1	0.666670	0.333330	0.102600
Ni21	Ni2	0.666670	0.333330	0.397400
Ni31	Ni3	0.333330	0.666670	0.897400
Ni41	Ni4	0.333330	0.666670	0.602600
C1091	C109	0.815300	0.407650	0.250000
C1101	C110	0.918700	0.459350	0.250000
C1111	C111	0.107700	0.553850	0.250000
H731	H73	0.171400	0.585700	0.250000
C1121	C112	0.592350	0.407650	0.250000
C1131	C113	0.540650	0.459350	0.250000
C1141	C114	0.446150	0.553850	0.250000
H741	H74	0.414300	0.585700	0.250000
C1151	C115	0.592350	0.184700	0.250000
C1161	C116	0.540650	0.081300	0.250000
C1171	C117	0.446150	0.892300	0.250000
H751	H75	0.414300	0.828600	0.250000
C1181	C118	0.184700	0.592350	0.750000
C1191	C119	0.081300	0.540650	0.750000
C1201	C120	0.892300	0.446150	0.750000
H761	H76	0.828600	0.414300	0.750000
C1211	C121	0.407650	0.592350	0.750000
C1221	C122	0.459350	0.540650	0.750000
C1231	C123	0.553850	0.446150	0.750000
H771	H77	0.585700	0.414300	0.750000
C1241	C124	0.407650	0.815300	0.750000
C1251	C125	0.459350	0.918700	0.750000
C1261	C126	0.553850	0.107700	0.750000
H781	H78	0.585700	0.171400	0.750000
