data_YOYQUA_clean_PM
_symmetry_space_group_name_H-M	'P1'
_cell_length_a	17.107000
_cell_length_b	17.107000
_cell_length_c	14.133000
_cell_angle_alpha	90.000000
_cell_angle_beta	90.000000
_cell_angle_gamma	120.000000
_symmetry_Int_Tables_number 1

loop_
_symmetry_equiv_pos_as_xyz
'x,y,z'

loop_
_atom_site_label
_atom_site_type_symbol
_atom_site_fract_x
_atom_site_fract_y
_atom_site_fract_z
O11	O1	0.783400	0.426900	0.182800
N11	N1	0.112500	0.503100	0.408000
N21	N2	0.226000	0.556900	0.511900
C11	C1	0.969600	0.457900	0.329200
H11	H1	0.938300	0.424700	0.382100
C21	C2	0.062400	0.504200	0.327700
C31	C3	0.188200	0.575700	0.442100
H21	H2	0.211000	0.633600	0.417900
C41	C4	0.100200	0.428900	0.460600
C51	C5	0.039000	0.337300	0.454000
H31	H3	0.992100	0.314700	0.410200
C61	C6	0.050500	0.281500	0.515000
H41	H4	0.011500	0.219500	0.511100
C71	C7	0.119800	0.315500	0.583600
H51	H5	0.124000	0.276100	0.625800
C81	C8	0.181500	0.407000	0.588600
H61	H6	0.228100	0.429400	0.632700
C91	C9	0.172300	0.464300	0.526300
O21	O2	0.573100	0.356500	0.182800
N31	N3	0.496900	0.609400	0.408000
N41	N4	0.443100	0.669100	0.511900
C101	C10	0.542100	0.511700	0.329200
H71	H7	0.575300	0.513600	0.382100
C111	C11	0.495800	0.558200	0.327700
C121	C12	0.424300	0.612500	0.442100
H81	H8	0.366400	0.577400	0.417900
C131	C13	0.571100	0.671300	0.460600
C141	C14	0.662700	0.701700	0.454000
H91	H9	0.685300	0.677400	0.410200
C151	C15	0.718500	0.769000	0.515000
H101	H10	0.780500	0.792000	0.511100
C161	C16	0.684500	0.804300	0.583600
H111	H11	0.723900	0.847900	0.625800
C171	C17	0.593000	0.774500	0.588600
H121	H12	0.570600	0.798700	0.632700
C181	C18	0.535700	0.708000	0.526300
O31	O3	0.643500	0.216600	0.182800
N51	N5	0.390600	0.887500	0.408000
N61	N6	0.330900	0.774000	0.511900
C191	C19	0.488300	0.030400	0.329200
H131	H13	0.486400	0.061700	0.382100
C201	C20	0.441800	0.937600	0.327700
C211	C21	0.387500	0.811800	0.442100
H141	H14	0.422600	0.789000	0.417900
C221	C22	0.328700	0.899800	0.460600
C231	C23	0.298300	0.961000	0.454000
H151	H15	0.322600	0.007900	0.410200
C241	C24	0.231000	0.949500	0.515000
H161	H16	0.208000	0.988500	0.511100
C251	C25	0.195700	0.880200	0.583600
H171	H17	0.152100	0.876000	0.625800
C261	C26	0.225500	0.818500	0.588600
H181	H18	0.201300	0.771900	0.632700
C271	C27	0.292000	0.827700	0.526300
O41	O4	0.573100	0.216600	0.317200
N71	N7	0.496900	0.887500	0.092000
N81	N8	0.443100	0.774000	0.988100
C281	C28	0.542100	0.030400	0.170800
H191	H19	0.575300	0.061700	0.117900
C291	C29	0.495800	0.937600	0.172300
C301	C30	0.424300	0.811800	0.057900
H201	H20	0.366400	0.789000	0.082100
C311	C31	0.571100	0.899800	0.039400
C321	C32	0.662700	0.961000	0.046000
H211	H21	0.685300	0.007900	0.089800
C331	C33	0.718500	0.949500	0.985000
H221	H22	0.780500	0.988500	0.988900
C341	C34	0.684500	0.880200	0.916400
H231	H23	0.723900	0.876000	0.874200
C351	C35	0.593000	0.818500	0.911400
H241	H24	0.570600	0.771900	0.867300
C361	C36	0.535700	0.827700	0.973700
O51	O5	0.643500	0.426900	0.317200
N91	N9	0.390600	0.503100	0.092000
N101	N10	0.330900	0.556900	0.988100
C371	C37	0.488300	0.457900	0.170800
H251	H25	0.486400	0.424700	0.117900
C381	C38	0.441800	0.504200	0.172300
C391	C39	0.387500	0.575700	0.057900
H261	H26	0.422600	0.633600	0.082100
C401	C40	0.328700	0.428900	0.039400
C411	C41	0.298300	0.337300	0.046000
H271	H27	0.322600	0.314700	0.089800
C421	C42	0.231000	0.281500	0.985000
H281	H28	0.208000	0.219500	0.988900
C431	C43	0.195700	0.315500	0.916400
H291	H29	0.152100	0.276100	0.874200
C441	C44	0.225500	0.407000	0.911400
H301	H30	0.201300	0.429400	0.867300
C451	C45	0.292000	0.464300	0.973700
O61	O6	0.783400	0.356500	0.317200
N111	N11	0.112500	0.609400	0.092000
N121	N12	0.226000	0.669100	0.988100
C461	C46	0.969600	0.511700	0.170800
H311	H31	0.938300	0.513600	0.117900
C471	C47	0.062400	0.558200	0.172300
C481	C48	0.188200	0.612500	0.057900
H321	H32	0.211000	0.577400	0.082100
C491	C49	0.100200	0.671300	0.039400
C501	C50	0.039000	0.701700	0.046000
H331	H33	0.992100	0.677400	0.089800
C511	C51	0.050500	0.769000	0.985000
H341	H34	0.011500	0.792000	0.988900
C521	C52	0.119800	0.804300	0.916400
H351	H35	0.124000	0.847900	0.874200
C531	C53	0.181500	0.774500	0.911400
H361	H36	0.228100	0.798700	0.867300
C541	C54	0.172300	0.708000	0.973700
O71	O7	0.216600	0.573100	0.817200
N131	N13	0.887500	0.496900	0.592000
N141	N14	0.774000	0.443100	0.488100
C551	C55	0.030400	0.542100	0.670800
H371	H37	0.061700	0.575300	0.617900
C561	C56	0.937600	0.495800	0.672300
C571	C57	0.811800	0.424300	0.557900
H381	H38	0.789000	0.366400	0.582100
C581	C58	0.899800	0.571100	0.539400
C591	C59	0.961000	0.662700	0.546000
H391	H39	0.007900	0.685300	0.589800
C601	C60	0.949500	0.718500	0.485000
H401	H40	0.988500	0.780500	0.488900
C611	C61	0.880200	0.684500	0.416400
H411	H41	0.876000	0.723900	0.374200
C621	C62	0.818500	0.593000	0.411400
H421	H42	0.771900	0.570600	0.367300
C631	C63	0.827700	0.535700	0.473700
O81	O8	0.426900	0.643500	0.817200
N151	N15	0.503100	0.390600	0.592000
N161	N16	0.556900	0.330900	0.488100
C641	C64	0.457900	0.488300	0.670800
H431	H43	0.424700	0.486400	0.617900
C651	C65	0.504200	0.441800	0.672300
C661	C66	0.575700	0.387500	0.557900
H441	H44	0.633600	0.422600	0.582100
C671	C67	0.428900	0.328700	0.539400
C681	C68	0.337300	0.298300	0.546000
H451	H45	0.314700	0.322600	0.589800
C691	C69	0.281500	0.231000	0.485000
H461	H46	0.219500	0.208000	0.488900
C701	C70	0.315500	0.195700	0.416400
H471	H47	0.276100	0.152100	0.374200
C711	C71	0.407000	0.225500	0.411400
H481	H48	0.429400	0.201300	0.367300
C721	C72	0.464300	0.292000	0.473700
O91	O9	0.356500	0.783400	0.817200
N171	N17	0.609400	0.112500	0.592000
N181	N18	0.669100	0.226000	0.488100
C731	C73	0.511700	0.969600	0.670800
H491	H49	0.513600	0.938300	0.617900
C741	C74	0.558200	0.062400	0.672300
C751	C75	0.612500	0.188200	0.557900
H501	H50	0.577400	0.211000	0.582100
C761	C76	0.671300	0.100200	0.539400
C771	C77	0.701700	0.039000	0.546000
H511	H51	0.677400	0.992100	0.589800
C781	C78	0.769000	0.050500	0.485000
H521	H52	0.792000	0.011500	0.488900
C791	C79	0.804300	0.119800	0.416400
H531	H53	0.847900	0.124000	0.374200
C801	C80	0.774500	0.181500	0.411400
H541	H54	0.798700	0.228100	0.367300
C811	C81	0.708000	0.172300	0.473700
O101	O10	0.426900	0.783400	0.682800
N191	N19	0.503100	0.112500	0.908000
N201	N20	0.556900	0.226000	0.011900
C821	C82	0.457900	0.969600	0.829200
H551	H55	0.424700	0.938300	0.882100
C831	C83	0.504200	0.062400	0.827700
C841	C84	0.575700	0.188200	0.942100
H561	H56	0.633600	0.211000	0.917900
C851	C85	0.428900	0.100200	0.960600
C861	C86	0.337300	0.039000	0.954000
H571	H57	0.314700	0.992100	0.910200
C871	C87	0.281500	0.050500	0.015000
H581	H58	0.219500	0.011500	0.011100
C881	C88	0.315500	0.119800	0.083600
H591	H59	0.276100	0.124000	0.125800
C891	C89	0.407000	0.181500	0.088600
H601	H60	0.429400	0.228100	0.132700
C901	C90	0.464300	0.172300	0.026300
O111	O11	0.356500	0.573100	0.682800
N211	N21	0.609400	0.496900	0.908000
N221	N22	0.669100	0.443100	0.011900
C911	C91	0.511700	0.542100	0.829200
H611	H61	0.513600	0.575300	0.882100
C921	C92	0.558200	0.495800	0.827700
C931	C93	0.612500	0.424300	0.942100
H621	H62	0.577400	0.366400	0.917900
C941	C94	0.671300	0.571100	0.960600
C951	C95	0.701700	0.662700	0.954000
H631	H63	0.677400	0.685300	0.910200
C961	C96	0.769000	0.718500	0.015000
H641	H64	0.792000	0.780500	0.011100
C971	C97	0.804300	0.684500	0.083600
H651	H65	0.847900	0.723900	0.125800
C981	C98	0.774500	0.593000	0.088600
H661	H66	0.798700	0.570600	0.132700
C991	C99	0.708000	0.535700	0.026300
O121	O12	0.216600	0.643500	0.682800
N231	N23	0.887500	0.390600	0.908000
N241	N24	0.774000	0.330900	0.011900
C1001	C100	0.030400	0.488300	0.829200
H671	H67	0.061700	0.486400	0.882100
C1011	C101	0.937600	0.441800	0.827700
C1021	C102	0.811800	0.387500	0.942100
H681	H68	0.789000	0.422600	0.917900
C1031	C103	0.899800	0.328700	0.960600
C1041	C104	0.961000	0.298300	0.954000
H691	H69	0.007900	0.322600	0.910200
C1051	C105	0.949500	0.231000	0.015000
H701	H70	0.988500	0.208000	0.011100
C1061	C106	0.880200	0.195700	0.083600
H711	H71	0.876000	0.152100	0.125800
C1071	C107	0.818500	0.225500	0.088600
H721	H72	0.771900	0.201300	0.132700
C1081	C108	0.827700	0.292000	0.026300
Mn11	Mn1	0.666670	0.333330	0.106750
Mn21	Mn2	0.666670	0.333330	0.393250
Mn31	Mn3	0.333330	0.666670	0.893250
Mn41	Mn4	0.333330	0.666670	0.606750
C1091	C109	0.821200	0.410600	0.250000
C1101	C110	0.923600	0.461800	0.250000
C1111	C111	0.110000	0.555000	0.250000
H731	H73	0.172700	0.586350	0.250000
C1121	C112	0.589400	0.410600	0.250000
C1131	C113	0.538200	0.461800	0.250000
C1141	C114	0.445000	0.555000	0.250000
H741	H74	0.413650	0.586350	0.250000
C1151	C115	0.589400	0.178800	0.250000
C1161	C116	0.538200	0.076400	0.250000
C1171	C117	0.445000	0.890000	0.250000
H751	H75	0.413650	0.827300	0.250000
C1181	C118	0.178800	0.589400	0.750000
C1191	C119	0.076400	0.538200	0.750000
C1201	C120	0.890000	0.445000	0.750000
H761	H76	0.827300	0.413650	0.750000
C1211	C121	0.410600	0.589400	0.750000
C1221	C122	0.461800	0.538200	0.750000
C1231	C123	0.555000	0.445000	0.750000
H771	H77	0.586350	0.413650	0.750000
C1241	C124	0.410600	0.821200	0.750000
C1251	C125	0.461800	0.923600	0.750000
C1261	C126	0.555000	0.110000	0.750000
H781	H78	0.586350	0.172700	0.750000
