data_YOYQAG_clean_PM
_symmetry_space_group_name_H-M	'P1'
_cell_length_a	17.033000
_cell_length_b	17.033000
_cell_length_c	13.928000
_cell_angle_alpha	90.000000
_cell_angle_beta	90.000000
_cell_angle_gamma	120.000000
_symmetry_Int_Tables_number 1

loop_
_symmetry_equiv_pos_as_xyz
'x,y,z'

loop_
_atom_site_label
_atom_site_type_symbol
_atom_site_fract_x
_atom_site_fract_y
_atom_site_fract_z
N11	N1	0.773300	0.334900	0.385700
C11	C1	0.810000	0.384000	0.459000
C21	C2	0.832400	0.298900	0.365800
N21	N2	0.889100	0.394400	0.488600
H11	H1	0.782600	0.411800	0.491100
C31	C3	0.823300	0.238900	0.293300
C41	C4	0.908000	0.336700	0.430100
C51	C5	0.940900	0.447100	0.569900
H21	H2	0.783500	0.221900	0.241700
C61	C6	0.885000	0.208300	0.311500
C71	C7	0.961300	0.307900	0.436300
C81	C8	0.037600	0.496300	0.570100
C91	C9	0.893800	0.450800	0.653100
H31	H3	0.875800	0.156600	0.279300
C101	C10	0.955300	0.247800	0.371200
H41	H4	0.004400	0.327500	0.485000
H51	H5	0.069700	0.498700	0.515100
C111	C11	0.081900	0.539200	0.650200
C121	C12	0.941600	0.495600	0.730300
H61	H6	0.830900	0.422500	0.653400
H71	H7	0.001000	0.233100	0.367400
C131	C13	0.184200	0.591500	0.654400
C141	C14	0.032000	0.540400	0.733600
N31	N3	0.890900	0.493100	0.813600
O11	O1	0.223100	0.576900	0.580100
O21	O2	0.220100	0.644500	0.718200
H81	H8	0.062400	0.571900	0.788600
C151	C15	0.811800	0.417600	0.843400
C161	C16	0.900200	0.561000	0.872300
N41	N4	0.229700	0.669500	0.415000
H91	H9	0.789500	0.359600	0.818500
C171	C17	0.829500	0.528100	0.935200
C181	C18	0.980300	0.657500	0.878900
C191	C19	0.824000	0.586300	0.001500
C201	C20	0.970600	0.710800	0.950500
H101	H10	0.030900	0.679300	0.839300
H111	H11	0.770300	0.566300	0.035500
C211	C21	0.895800	0.673500	0.018900
H121	H12	0.013600	0.772100	0.954200
H131	H13	0.896100	0.706500	0.072200
N51	N5	0.665100	0.438400	0.385700
C221	C22	0.616000	0.426000	0.459000
C231	C23	0.701100	0.533500	0.365800
N61	N6	0.605600	0.494700	0.488600
H141	H14	0.588200	0.370800	0.491100
C241	C24	0.761100	0.584400	0.293300
C251	C25	0.663300	0.571300	0.430100
C261	C26	0.552900	0.493800	0.569900
H151	H15	0.778100	0.561600	0.241700
C271	C27	0.791700	0.676700	0.311500
C281	C28	0.692100	0.653400	0.436300
C291	C29	0.503700	0.541300	0.570100
C301	C30	0.549200	0.443000	0.653100
H161	H16	0.843400	0.719200	0.279300
C311	C31	0.752200	0.707500	0.371200
H171	H17	0.672500	0.676900	0.485000
H181	H18	0.501300	0.571000	0.515100
C321	C32	0.460800	0.542700	0.650200
C331	C33	0.504400	0.446000	0.730300
H191	H19	0.577500	0.408400	0.653400
H201	H20	0.766900	0.767900	0.367400
C341	C34	0.408500	0.592700	0.654400
C351	C35	0.459600	0.491600	0.733600
N71	N7	0.506900	0.397800	0.813600
O31	O3	0.423100	0.646200	0.580100
O41	O4	0.355500	0.575600	0.718200
H211	H21	0.428100	0.490500	0.788600
C361	C36	0.582400	0.394200	0.843400
C371	C37	0.439000	0.339200	0.872300
N81	N8	0.330500	0.560200	0.415000
H221	H22	0.640400	0.429900	0.818500
C381	C38	0.471900	0.301400	0.935200
C391	C39	0.342500	0.322800	0.878900
C401	C40	0.413700	0.237700	0.001500
C411	C41	0.289200	0.259800	0.950500
H231	H23	0.320700	0.351600	0.839300
H241	H24	0.433700	0.204000	0.035500
C421	C42	0.326500	0.222300	0.018900
H251	H25	0.227900	0.241500	0.954200
H261	H26	0.293500	0.189600	0.072200
N91	N9	0.561600	0.226700	0.385700
C431	C43	0.574000	0.190000	0.459000
C441	C44	0.466500	0.167600	0.365800
N101	N10	0.505300	0.110900	0.488600
H271	H27	0.629200	0.217400	0.491100
C451	C45	0.415600	0.176700	0.293300
C461	C46	0.428700	0.092000	0.430100
C471	C47	0.506200	0.059100	0.569900
H281	H28	0.438400	0.216500	0.241700
C481	C48	0.323300	0.115000	0.311500
C491	C49	0.346600	0.038700	0.436300
C501	C50	0.458700	0.962400	0.570100
C511	C51	0.557000	0.106200	0.653100
H291	H29	0.280800	0.124200	0.279300
C521	C52	0.292500	0.044700	0.371200
H301	H30	0.323100	0.995600	0.485000
H311	H31	0.429000	0.930300	0.515100
C531	C53	0.457300	0.918100	0.650200
C541	C54	0.554000	0.058400	0.730300
H321	H32	0.591600	0.169100	0.653400
H331	H33	0.232100	0.999000	0.367400
C551	C55	0.407300	0.815800	0.654400
C561	C56	0.508400	0.968000	0.733600
N111	N11	0.602200	0.109100	0.813600
O51	O5	0.353800	0.776900	0.580100
O61	O6	0.424400	0.779900	0.718200
H341	H34	0.509500	0.937600	0.788600
C571	C57	0.605800	0.188200	0.843400
C581	C58	0.660800	0.099800	0.872300
N121	N12	0.439800	0.770300	0.415000
H351	H35	0.570100	0.210500	0.818500
C591	C59	0.698600	0.170500	0.935200
C601	C60	0.677200	0.019700	0.878900
C611	C61	0.762300	0.176000	0.001500
C621	C62	0.740200	0.029400	0.950500
H361	H36	0.648400	0.969100	0.839300
H371	H37	0.796000	0.229700	0.035500
C631	C63	0.777700	0.104200	0.018900
H381	H38	0.758500	0.986400	0.954200
H391	H39	0.810400	0.103900	0.072200
N131	N13	0.334900	0.773300	0.885700
C641	C64	0.384000	0.810000	0.959000
C651	C65	0.298900	0.832400	0.865800
N141	N14	0.394400	0.889100	0.988600
H401	H40	0.411800	0.782600	0.991100
C661	C66	0.238900	0.823300	0.793300
C671	C67	0.336700	0.908000	0.930100
C681	C68	0.447100	0.940900	0.069900
H411	H41	0.221900	0.783500	0.741700
C691	C69	0.208300	0.885000	0.811500
C701	C70	0.307900	0.961300	0.936300
C711	C71	0.496300	0.037600	0.070100
C721	C72	0.450800	0.893800	0.153100
H421	H42	0.156600	0.875800	0.779300
C731	C73	0.247800	0.955300	0.871200
H431	H43	0.327500	0.004400	0.985000
H441	H44	0.498700	0.069700	0.015100
C741	C74	0.539200	0.081900	0.150200
C751	C75	0.495600	0.941600	0.230300
H451	H45	0.422500	0.830900	0.153400
H461	H46	0.233100	0.001000	0.867400
C761	C76	0.591500	0.184200	0.154400
C771	C77	0.540400	0.032000	0.233600
N151	N15	0.493100	0.890900	0.313600
O71	O7	0.576900	0.223100	0.080100
O81	O8	0.644500	0.220100	0.218200
H471	H47	0.571900	0.062400	0.288600
C781	C78	0.417600	0.811800	0.343400
C791	C79	0.561000	0.900200	0.372300
N161	N16	0.669500	0.229700	0.915000
H481	H48	0.359600	0.789500	0.318500
C801	C80	0.528100	0.829500	0.435200
C811	C81	0.657500	0.980300	0.378900
C821	C82	0.586300	0.824000	0.501500
C831	C83	0.710800	0.970600	0.450500
H491	H49	0.679300	0.030900	0.339300
H501	H50	0.566300	0.770300	0.535500
C841	C84	0.673500	0.895800	0.518900
H511	H51	0.772100	0.013600	0.454200
H521	H52	0.706500	0.896100	0.572200
N171	N17	0.438400	0.665100	0.885700
C851	C85	0.426000	0.616000	0.959000
C861	C86	0.533500	0.701100	0.865800
N181	N18	0.494700	0.605600	0.988600
H531	H53	0.370800	0.588200	0.991100
C871	C87	0.584400	0.761100	0.793300
C881	C88	0.571300	0.663300	0.930100
C891	C89	0.493800	0.552900	0.069900
H541	H54	0.561600	0.778100	0.741700
C901	C90	0.676700	0.791700	0.811500
C911	C91	0.653400	0.692100	0.936300
C921	C92	0.541300	0.503700	0.070100
C931	C93	0.443000	0.549200	0.153100
H551	H55	0.719200	0.843400	0.779300
C941	C94	0.707500	0.752200	0.871200
H561	H56	0.676900	0.672500	0.985000
H571	H57	0.571000	0.501300	0.015100
C951	C95	0.542700	0.460800	0.150200
C961	C96	0.446000	0.504400	0.230300
H581	H58	0.408400	0.577500	0.153400
H591	H59	0.767900	0.766900	0.867400
C971	C97	0.592700	0.408500	0.154400
C981	C98	0.491600	0.459600	0.233600
N191	N19	0.397800	0.506900	0.313600
O91	O9	0.646200	0.423100	0.080100
O101	O10	0.575600	0.355500	0.218200
H601	H60	0.490500	0.428100	0.288600
C991	C99	0.394200	0.582400	0.343400
C1001	C100	0.339200	0.439000	0.372300
N201	N20	0.560200	0.330500	0.915000
H611	H61	0.429900	0.640400	0.318500
C1011	C101	0.301400	0.471900	0.435200
C1021	C102	0.322800	0.342500	0.378900
C1031	C103	0.237700	0.413700	0.501500
C1041	C104	0.259800	0.289200	0.450500
H621	H62	0.351600	0.320700	0.339300
H631	H63	0.204000	0.433700	0.535500
C1051	C105	0.222300	0.326500	0.518900
H641	H64	0.241500	0.227900	0.454200
H651	H65	0.189600	0.293500	0.572200
N211	N21	0.226700	0.561600	0.885700
C1061	C106	0.190000	0.574000	0.959000
C1071	C107	0.167600	0.466500	0.865800
N221	N22	0.110900	0.505300	0.988600
H661	H66	0.217400	0.629200	0.991100
C1081	C108	0.176700	0.415600	0.793300
C1091	C109	0.092000	0.428700	0.930100
C1101	C110	0.059100	0.506200	0.069900
H671	H67	0.216500	0.438400	0.741700
C1111	C111	0.115000	0.323300	0.811500
C1121	C112	0.038700	0.346600	0.936300
C1131	C113	0.962400	0.458700	0.070100
C1141	C114	0.106200	0.557000	0.153100
H681	H68	0.124200	0.280800	0.779300
C1151	C115	0.044700	0.292500	0.871200
H691	H69	0.995600	0.323100	0.985000
H701	H70	0.930300	0.429000	0.015100
C1161	C116	0.918100	0.457300	0.150200
C1171	C117	0.058400	0.554000	0.230300
H711	H71	0.169100	0.591600	0.153400
H721	H72	0.999000	0.232100	0.867400
C1181	C118	0.815800	0.407300	0.154400
C1191	C119	0.968000	0.508400	0.233600
N231	N23	0.109100	0.602200	0.313600
O111	O11	0.776900	0.353800	0.080100
O121	O12	0.779900	0.424400	0.218200
H731	H73	0.937600	0.509500	0.288600
C1201	C120	0.188200	0.605800	0.343400
C1211	C121	0.099800	0.660800	0.372300
N241	N24	0.770300	0.439800	0.915000
H741	H74	0.210500	0.570100	0.318500
C1221	C122	0.170500	0.698600	0.435200
C1231	C123	0.019700	0.677200	0.378900
C1241	C124	0.176000	0.762300	0.501500
C1251	C125	0.029400	0.740200	0.450500
H751	H75	0.969100	0.648400	0.339300
H761	H76	0.229700	0.796000	0.535500
C1261	C126	0.104200	0.777700	0.518900
H771	H77	0.986400	0.758500	0.454200
H781	H78	0.103900	0.810400	0.572200
Co11	Co1	0.666670	0.333330	0.298200
Co21	Co2	0.333330	0.666670	0.798200
Co31	Co3	0.333330	0.666670	0.503280
Co41	Co4	0.666670	0.333330	0.003280
