data_YOYRIP_clean_PM
_symmetry_space_group_name_H-M	'P1'
_cell_length_a	17.203000
_cell_length_b	17.203000
_cell_length_c	14.045000
_cell_angle_alpha	90.000000
_cell_angle_beta	90.000000
_cell_angle_gamma	120.000000
_symmetry_Int_Tables_number 1

loop_
_symmetry_equiv_pos_as_xyz
'x,y,z'

loop_
_atom_site_label
_atom_site_type_symbol
_atom_site_fract_x
_atom_site_fract_y
_atom_site_fract_z
O11	O1	0.783420	0.426540	0.182410
N11	N1	0.111400	0.502600	0.408100
N21	N2	0.226800	0.556800	0.511200
C11	C1	0.969000	0.457700	0.329500
H11	H1	0.938000	0.424400	0.382800
C21	C2	0.061800	0.504100	0.328600
C31	C3	0.188000	0.575500	0.441300
H21	H2	0.210500	0.633000	0.416700
C41	C4	0.099900	0.429000	0.461800
C51	C5	0.037300	0.337700	0.457200
H31	H3	0.990200	0.314900	0.413800
C61	C6	0.048700	0.282500	0.520300
H41	H4	0.008500	0.221000	0.518900
C71	C7	0.118900	0.316900	0.586000
H51	H5	0.123500	0.277900	0.628500
C81	C8	0.182100	0.407600	0.589800
H61	H6	0.229000	0.429900	0.633400
C91	C9	0.172400	0.464200	0.525600
O21	O2	0.573460	0.356880	0.182410
N31	N3	0.497400	0.608800	0.408100
N41	N4	0.443200	0.670000	0.511200
C101	C10	0.542300	0.511300	0.329500
H71	H7	0.575600	0.513600	0.382800
C111	C11	0.495900	0.557700	0.328600
C121	C12	0.424500	0.612500	0.441300
H81	H8	0.367000	0.577500	0.416700
C131	C13	0.571000	0.670900	0.461800
C141	C14	0.662300	0.699600	0.457200
H91	H9	0.685100	0.675300	0.413800
C151	C15	0.717500	0.766200	0.520300
H101	H10	0.779000	0.787500	0.518900
C161	C16	0.683100	0.802000	0.586000
H111	H11	0.722100	0.845600	0.628500
C171	C17	0.592400	0.774500	0.589800
H121	H12	0.570100	0.799100	0.633400
C181	C18	0.535800	0.708200	0.525600
O31	O3	0.643120	0.216580	0.182410
N51	N5	0.391200	0.888600	0.408100
N61	N6	0.330000	0.773200	0.511200
C191	C19	0.488700	0.031000	0.329500
H131	H13	0.486400	0.062000	0.382800
C201	C20	0.442300	0.938200	0.328600
C211	C21	0.387500	0.812000	0.441300
H141	H14	0.422500	0.789500	0.416700
C221	C22	0.329100	0.900100	0.461800
C231	C23	0.300400	0.962700	0.457200
H151	H15	0.324700	0.009800	0.413800
C241	C24	0.233800	0.951300	0.520300
H161	H16	0.212500	0.991500	0.518900
C251	C25	0.198000	0.881100	0.586000
H171	H17	0.154400	0.876500	0.628500
C261	C26	0.225500	0.817900	0.589800
H181	H18	0.200900	0.771000	0.633400
C271	C27	0.291800	0.827600	0.525600
O41	O4	0.573460	0.216580	0.317590
N71	N7	0.497400	0.888600	0.091900
N81	N8	0.443200	0.773200	0.988800
C281	C28	0.542300	0.031000	0.170500
H191	H19	0.575600	0.062000	0.117200
C291	C29	0.495900	0.938200	0.171400
C301	C30	0.424500	0.812000	0.058700
H201	H20	0.367000	0.789500	0.083300
C311	C31	0.571000	0.900100	0.038200
C321	C32	0.662300	0.962700	0.042800
H211	H21	0.685100	0.009800	0.086200
C331	C33	0.717500	0.951300	0.979700
H221	H22	0.779000	0.991500	0.981100
C341	C34	0.683100	0.881100	0.914000
H231	H23	0.722100	0.876500	0.871500
C351	C35	0.592400	0.817900	0.910200
H241	H24	0.570100	0.771000	0.866600
C361	C36	0.535800	0.827600	0.974400
O51	O5	0.643120	0.426540	0.317590
N91	N9	0.391200	0.502600	0.091900
N101	N10	0.330000	0.556800	0.988800
C371	C37	0.488700	0.457700	0.170500
H251	H25	0.486400	0.424400	0.117200
C381	C38	0.442300	0.504100	0.171400
C391	C39	0.387500	0.575500	0.058700
H261	H26	0.422500	0.633000	0.083300
C401	C40	0.329100	0.429000	0.038200
C411	C41	0.300400	0.337700	0.042800
H271	H27	0.324700	0.314900	0.086200
C421	C42	0.233800	0.282500	0.979700
H281	H28	0.212500	0.221000	0.981100
C431	C43	0.198000	0.316900	0.914000
H291	H29	0.154400	0.277900	0.871500
C441	C44	0.225500	0.407600	0.910200
H301	H30	0.200900	0.429900	0.866600
C451	C45	0.291800	0.464200	0.974400
O61	O6	0.783420	0.356880	0.317590
N111	N11	0.111400	0.608800	0.091900
N121	N12	0.226800	0.670000	0.988800
C461	C46	0.969000	0.511300	0.170500
H311	H31	0.938000	0.513600	0.117200
C471	C47	0.061800	0.557700	0.171400
C481	C48	0.188000	0.612500	0.058700
H321	H32	0.210500	0.577500	0.083300
C491	C49	0.099900	0.670900	0.038200
C501	C50	0.037300	0.699600	0.042800
H331	H33	0.990200	0.675300	0.086200
C511	C51	0.048700	0.766200	0.979700
H341	H34	0.008500	0.787500	0.981100
C521	C52	0.118900	0.802000	0.914000
H351	H35	0.123500	0.845600	0.871500
C531	C53	0.182100	0.774500	0.910200
H361	H36	0.229000	0.799100	0.866600
C541	C54	0.172400	0.708200	0.974400
O71	O7	0.216580	0.573460	0.817590
N131	N13	0.888600	0.497400	0.591900
N141	N14	0.773200	0.443200	0.488800
C551	C55	0.031000	0.542300	0.670500
H371	H37	0.062000	0.575600	0.617200
C561	C56	0.938200	0.495900	0.671400
C571	C57	0.812000	0.424500	0.558700
H381	H38	0.789500	0.367000	0.583300
C581	C58	0.900100	0.571000	0.538200
C591	C59	0.962700	0.662300	0.542800
H391	H39	0.009800	0.685100	0.586200
C601	C60	0.951300	0.717500	0.479700
H401	H40	0.991500	0.779000	0.481100
C611	C61	0.881100	0.683100	0.414000
H411	H41	0.876500	0.722100	0.371500
C621	C62	0.817900	0.592400	0.410200
H421	H42	0.771000	0.570100	0.366600
C631	C63	0.827600	0.535800	0.474400
O81	O8	0.426540	0.643120	0.817590
N151	N15	0.502600	0.391200	0.591900
N161	N16	0.556800	0.330000	0.488800
C641	C64	0.457700	0.488700	0.670500
H431	H43	0.424400	0.486400	0.617200
C651	C65	0.504100	0.442300	0.671400
C661	C66	0.575500	0.387500	0.558700
H441	H44	0.633000	0.422500	0.583300
C671	C67	0.429000	0.329100	0.538200
C681	C68	0.337700	0.300400	0.542800
H451	H45	0.314900	0.324700	0.586200
C691	C69	0.282500	0.233800	0.479700
H461	H46	0.221000	0.212500	0.481100
C701	C70	0.316900	0.198000	0.414000
H471	H47	0.277900	0.154400	0.371500
C711	C71	0.407600	0.225500	0.410200
H481	H48	0.429900	0.200900	0.366600
C721	C72	0.464200	0.291800	0.474400
O91	O9	0.356880	0.783420	0.817590
N171	N17	0.608800	0.111400	0.591900
N181	N18	0.670000	0.226800	0.488800
C731	C73	0.511300	0.969000	0.670500
H491	H49	0.513600	0.938000	0.617200
C741	C74	0.557700	0.061800	0.671400
C751	C75	0.612500	0.188000	0.558700
H501	H50	0.577500	0.210500	0.583300
C761	C76	0.670900	0.099900	0.538200
C771	C77	0.699600	0.037300	0.542800
H511	H51	0.675300	0.990200	0.586200
C781	C78	0.766200	0.048700	0.479700
H521	H52	0.787500	0.008500	0.481100
C791	C79	0.802000	0.118900	0.414000
H531	H53	0.845600	0.123500	0.371500
C801	C80	0.774500	0.182100	0.410200
H541	H54	0.799100	0.229000	0.366600
C811	C81	0.708200	0.172400	0.474400
O101	O10	0.426540	0.783420	0.682410
N191	N19	0.502600	0.111400	0.908100
N201	N20	0.556800	0.226800	0.011200
C821	C82	0.457700	0.969000	0.829500
H551	H55	0.424400	0.938000	0.882800
C831	C83	0.504100	0.061800	0.828600
C841	C84	0.575500	0.188000	0.941300
H561	H56	0.633000	0.210500	0.916700
C851	C85	0.429000	0.099900	0.961800
C861	C86	0.337700	0.037300	0.957200
H571	H57	0.314900	0.990200	0.913800
C871	C87	0.282500	0.048700	0.020300
H581	H58	0.221000	0.008500	0.018900
C881	C88	0.316900	0.118900	0.086000
H591	H59	0.277900	0.123500	0.128500
C891	C89	0.407600	0.182100	0.089800
H601	H60	0.429900	0.229000	0.133400
C901	C90	0.464200	0.172400	0.025600
O111	O11	0.356880	0.573460	0.682410
N211	N21	0.608800	0.497400	0.908100
N221	N22	0.670000	0.443200	0.011200
C911	C91	0.511300	0.542300	0.829500
H611	H61	0.513600	0.575600	0.882800
C921	C92	0.557700	0.495900	0.828600
C931	C93	0.612500	0.424500	0.941300
H621	H62	0.577500	0.367000	0.916700
C941	C94	0.670900	0.571000	0.961800
C951	C95	0.699600	0.662300	0.957200
H631	H63	0.675300	0.685100	0.913800
C961	C96	0.766200	0.717500	0.020300
H641	H64	0.787500	0.779000	0.018900
C971	C97	0.802000	0.683100	0.086000
H651	H65	0.845600	0.722100	0.128500
C981	C98	0.774500	0.592400	0.089800
H661	H66	0.799100	0.570100	0.133400
C991	C99	0.708200	0.535800	0.025600
O121	O12	0.216580	0.643120	0.682410
N231	N23	0.888600	0.391200	0.908100
N241	N24	0.773200	0.330000	0.011200
C1001	C100	0.031000	0.488700	0.829500
H671	H67	0.062000	0.486400	0.882800
C1011	C101	0.938200	0.442300	0.828600
C1021	C102	0.812000	0.387500	0.941300
H681	H68	0.789500	0.422500	0.916700
C1031	C103	0.900100	0.329100	0.961800
C1041	C104	0.962700	0.300400	0.957200
H691	H69	0.009800	0.324700	0.913800
C1051	C105	0.951300	0.233800	0.020300
H701	H70	0.991500	0.212500	0.018900
C1061	C106	0.881100	0.198000	0.086000
H711	H71	0.876500	0.154400	0.128500
C1071	C107	0.817900	0.225500	0.089800
H721	H72	0.771000	0.200900	0.133400
C1081	C108	0.827600	0.291800	0.025600
Mn11	Mn1	0.666670	0.333330	0.105990
Mn21	Mn2	0.666670	0.333330	0.394010
Mn31	Mn3	0.333330	0.666670	0.894010
Mn41	Mn4	0.333330	0.666670	0.605990
C1091	C109	0.820900	0.410450	0.250000
C1101	C110	0.922100	0.461050	0.250000
C1111	C111	0.108500	0.554250	0.250000
H731	H73	0.170900	0.585450	0.250000
C1121	C112	0.589550	0.410450	0.250000
C1131	C113	0.538950	0.461050	0.250000
C1141	C114	0.445750	0.554250	0.250000
H741	H74	0.414550	0.585450	0.250000
C1151	C115	0.589550	0.179100	0.250000
C1161	C116	0.538950	0.077900	0.250000
C1171	C117	0.445750	0.891500	0.250000
H751	H75	0.414550	0.829100	0.250000
C1181	C118	0.179100	0.589550	0.750000
C1191	C119	0.077900	0.538950	0.750000
C1201	C120	0.891500	0.445750	0.750000
H761	H76	0.829100	0.414550	0.750000
C1211	C121	0.410450	0.589550	0.750000
C1221	C122	0.461050	0.538950	0.750000
C1231	C123	0.554250	0.445750	0.750000
H771	H77	0.585450	0.414550	0.750000
C1241	C124	0.410450	0.820900	0.750000
C1251	C125	0.461050	0.922100	0.750000
C1261	C126	0.554250	0.108500	0.750000
H781	H78	0.585450	0.170900	0.750000
