data_YOYRAH_clean_PM
_symmetry_space_group_name_H-M	'P1'
_cell_length_a	17.246000
_cell_length_b	17.246000
_cell_length_c	14.135000
_cell_angle_alpha	90.000000
_cell_angle_beta	90.000000
_cell_angle_gamma	120.000000
_symmetry_Int_Tables_number 1

loop_
_symmetry_equiv_pos_as_xyz
'x,y,z'

loop_
_atom_site_label
_atom_site_type_symbol
_atom_site_fract_x
_atom_site_fract_y
_atom_site_fract_z
O11	O1	0.642700	0.424700	0.182700
N11	N1	0.494400	0.603600	0.089500
N21	N2	0.442000	0.667300	0.989500
C11	C1	0.540700	0.508000	0.169800
H11	H1	0.571900	0.508800	0.115700
C21	C2	0.495500	0.553400	0.171500
C31	C3	0.423700	0.612200	0.061900
H21	H2	0.367900	0.582400	0.091000
C41	C4	0.565300	0.657600	0.028900
C51	C5	0.651500	0.675400	0.024500
H31	H3	0.673500	0.649800	0.066800
C61	C6	0.705200	0.733500	0.953800
H41	H4	0.764500	0.747300	0.947900
C71	C7	0.670000	0.771400	0.891100
H51	H5	0.707000	0.810600	0.844700
C81	C8	0.585100	0.753000	0.896000
H61	H6	0.562700	0.777700	0.853100
C91	C9	0.530900	0.695400	0.967800
O21	O2	0.575300	0.218000	0.182700
N31	N3	0.396400	0.890800	0.089500
N41	N4	0.332700	0.774700	0.989500
C101	C10	0.492000	0.032700	0.169800
H71	H7	0.491200	0.063100	0.115700
C111	C11	0.446600	0.942100	0.171500
C121	C12	0.387800	0.811500	0.061900
H81	H8	0.417600	0.785500	0.091000
C131	C13	0.342400	0.907700	0.028900
C141	C14	0.324600	0.976100	0.024500
H91	H9	0.350200	0.023700	0.066800
C151	C15	0.266500	0.971700	0.953800
H101	H10	0.252700	0.017200	0.947900
C161	C16	0.228600	0.898600	0.891100
H111	H11	0.189400	0.896400	0.844700
C171	C17	0.247000	0.832100	0.896000
H121	H12	0.222300	0.785000	0.853100
C181	C18	0.304600	0.835500	0.967800
O31	O3	0.782000	0.357300	0.182700
N51	N5	0.109200	0.505600	0.089500
N61	N6	0.225300	0.558000	0.989500
C191	C19	0.967300	0.459300	0.169800
H131	H13	0.936900	0.428100	0.115700
C201	C20	0.057900	0.504500	0.171500
C211	C21	0.188500	0.576300	0.061900
H141	H14	0.214500	0.632100	0.091000
C221	C22	0.092300	0.434700	0.028900
C231	C23	0.023900	0.348500	0.024500
H151	H15	0.976300	0.326500	0.066800
C241	C24	0.028300	0.294800	0.953800
H161	H16	0.982800	0.235500	0.947900
C251	C25	0.101400	0.330000	0.891100
H171	H17	0.103600	0.293000	0.844700
C261	C26	0.167900	0.414900	0.896000
H181	H18	0.215000	0.437300	0.853100
C271	C27	0.164500	0.469100	0.967800
O41	O4	0.575300	0.357300	0.317300
N71	N7	0.396400	0.505600	0.410500
N81	N8	0.332700	0.558000	0.510500
C281	C28	0.492000	0.459300	0.330200
H191	H19	0.491200	0.428100	0.384300
C291	C29	0.446600	0.504500	0.328500
C301	C30	0.387800	0.576300	0.438100
H201	H20	0.417600	0.632100	0.409000
C311	C31	0.342400	0.434700	0.471100
C321	C32	0.324600	0.348500	0.475500
H211	H21	0.350200	0.326500	0.433200
C331	C33	0.266500	0.294800	0.546200
H221	H22	0.252700	0.235500	0.552100
C341	C34	0.228600	0.330000	0.608900
H231	H23	0.189400	0.293000	0.655300
C351	C35	0.247000	0.414900	0.604000
H241	H24	0.222300	0.437300	0.646900
C361	C36	0.304600	0.469100	0.532200
O51	O5	0.782000	0.424700	0.317300
N91	N9	0.109200	0.603600	0.410500
N101	N10	0.225300	0.667300	0.510500
C371	C37	0.967300	0.508000	0.330200
H251	H25	0.936900	0.508800	0.384300
C381	C38	0.057900	0.553400	0.328500
C391	C39	0.188500	0.612200	0.438100
H261	H26	0.214500	0.582400	0.409000
C401	C40	0.092300	0.657600	0.471100
C411	C41	0.023900	0.675400	0.475500
H271	H27	0.976300	0.649800	0.433200
C421	C42	0.028300	0.733500	0.546200
H281	H28	0.982800	0.747300	0.552100
C431	C43	0.101400	0.771400	0.608900
H291	H29	0.103600	0.810600	0.655300
C441	C44	0.167900	0.753000	0.604000
H301	H30	0.215000	0.777700	0.646900
C451	C45	0.164500	0.695400	0.532200
O61	O6	0.642700	0.218000	0.317300
N111	N11	0.494400	0.890800	0.410500
N121	N12	0.442000	0.774700	0.510500
C461	C46	0.540700	0.032700	0.330200
H311	H31	0.571900	0.063100	0.384300
C471	C47	0.495500	0.942100	0.328500
C481	C48	0.423700	0.811500	0.438100
H321	H32	0.367900	0.785500	0.409000
C491	C49	0.565300	0.907700	0.471100
C501	C50	0.651500	0.976100	0.475500
H331	H33	0.673500	0.023700	0.433200
C511	C51	0.705200	0.971700	0.546200
H341	H34	0.764500	0.017200	0.552100
C521	C52	0.670000	0.898600	0.608900
H351	H35	0.707000	0.896400	0.655300
C531	C53	0.585100	0.832100	0.604000
H361	H36	0.562700	0.785000	0.646900
C541	C54	0.530900	0.835500	0.532200
O71	O7	0.357300	0.575300	0.817300
N131	N13	0.505600	0.396400	0.910500
N141	N14	0.558000	0.332700	0.010500
C551	C55	0.459300	0.492000	0.830200
H371	H37	0.428100	0.491200	0.884300
C561	C56	0.504500	0.446600	0.828500
C571	C57	0.576300	0.387800	0.938100
H381	H38	0.632100	0.417600	0.909000
C581	C58	0.434700	0.342400	0.971100
C591	C59	0.348500	0.324600	0.975500
H391	H39	0.326500	0.350200	0.933200
C601	C60	0.294800	0.266500	0.046200
H401	H40	0.235500	0.252700	0.052100
C611	C61	0.330000	0.228600	0.108900
H411	H41	0.293000	0.189400	0.155300
C621	C62	0.414900	0.247000	0.104000
H421	H42	0.437300	0.222300	0.146900
C631	C63	0.469100	0.304600	0.032200
O81	O8	0.424700	0.782000	0.817300
N151	N15	0.603600	0.109200	0.910500
N161	N16	0.667300	0.225300	0.010500
C641	C64	0.508000	0.967300	0.830200
H431	H43	0.508800	0.936900	0.884300
C651	C65	0.553400	0.057900	0.828500
C661	C66	0.612200	0.188500	0.938100
H441	H44	0.582400	0.214500	0.909000
C671	C67	0.657600	0.092300	0.971100
C681	C68	0.675400	0.023900	0.975500
H451	H45	0.649800	0.976300	0.933200
C691	C69	0.733500	0.028300	0.046200
H461	H46	0.747300	0.982800	0.052100
C701	C70	0.771400	0.101400	0.108900
H471	H47	0.810600	0.103600	0.155300
C711	C71	0.753000	0.167900	0.104000
H481	H48	0.777700	0.215000	0.146900
C721	C72	0.695400	0.164500	0.032200
O91	O9	0.218000	0.642700	0.817300
N171	N17	0.890800	0.494400	0.910500
N181	N18	0.774700	0.442000	0.010500
C731	C73	0.032700	0.540700	0.830200
H491	H49	0.063100	0.571900	0.884300
C741	C74	0.942100	0.495500	0.828500
C751	C75	0.811500	0.423700	0.938100
H501	H50	0.785500	0.367900	0.909000
C761	C76	0.907700	0.565300	0.971100
C771	C77	0.976100	0.651500	0.975500
H511	H51	0.023700	0.673500	0.933200
C781	C78	0.971700	0.705200	0.046200
H521	H52	0.017200	0.764500	0.052100
C791	C79	0.898600	0.670000	0.108900
H531	H53	0.896400	0.707000	0.155300
C801	C80	0.832100	0.585100	0.104000
H541	H54	0.785000	0.562700	0.146900
C811	C81	0.835500	0.530900	0.032200
O101	O10	0.424700	0.642700	0.682700
N191	N19	0.603600	0.494400	0.589500
N201	N20	0.667300	0.442000	0.489500
C821	C82	0.508000	0.540700	0.669800
H551	H55	0.508800	0.571900	0.615700
C831	C83	0.553400	0.495500	0.671500
C841	C84	0.612200	0.423700	0.561900
H561	H56	0.582400	0.367900	0.591000
C851	C85	0.657600	0.565300	0.528900
C861	C86	0.675400	0.651500	0.524500
H571	H57	0.649800	0.673500	0.566800
C871	C87	0.733500	0.705200	0.453800
H581	H58	0.747300	0.764500	0.447900
C881	C88	0.771400	0.670000	0.391100
H591	H59	0.810600	0.707000	0.344700
C891	C89	0.753000	0.585100	0.396000
H601	H60	0.777700	0.562700	0.353100
C901	C90	0.695400	0.530900	0.467800
O111	O11	0.218000	0.575300	0.682700
N211	N21	0.890800	0.396400	0.589500
N221	N22	0.774700	0.332700	0.489500
C911	C91	0.032700	0.492000	0.669800
H611	H61	0.063100	0.491200	0.615700
C921	C92	0.942100	0.446600	0.671500
C931	C93	0.811500	0.387800	0.561900
H621	H62	0.785500	0.417600	0.591000
C941	C94	0.907700	0.342400	0.528900
C951	C95	0.976100	0.324600	0.524500
H631	H63	0.023700	0.350200	0.566800
C961	C96	0.971700	0.266500	0.453800
H641	H64	0.017200	0.252700	0.447900
C971	C97	0.898600	0.228600	0.391100
H651	H65	0.896400	0.189400	0.344700
C981	C98	0.832100	0.247000	0.396000
H661	H66	0.785000	0.222300	0.353100
C991	C99	0.835500	0.304600	0.467800
O121	O12	0.357300	0.782000	0.682700
N231	N23	0.505600	0.109200	0.589500
N241	N24	0.558000	0.225300	0.489500
C1001	C100	0.459300	0.967300	0.669800
H671	H67	0.428100	0.936900	0.615700
C1011	C101	0.504500	0.057900	0.671500
C1021	C102	0.576300	0.188500	0.561900
H681	H68	0.632100	0.214500	0.591000
C1031	C103	0.434700	0.092300	0.528900
C1041	C104	0.348500	0.023900	0.524500
H691	H69	0.326500	0.976300	0.566800
C1051	C105	0.294800	0.028300	0.453800
H701	H70	0.235500	0.982800	0.447900
C1061	C106	0.330000	0.101400	0.391100
H711	H71	0.293000	0.103600	0.344700
C1071	C107	0.414900	0.167900	0.396000
H721	H72	0.437300	0.215000	0.353100
C1081	C108	0.469100	0.164500	0.467800
Mn11	Mn1	0.666670	0.333330	0.104000
Mn21	Mn2	0.666670	0.333330	0.396000
Mn31	Mn3	0.333330	0.666670	0.896000
Mn41	Mn4	0.333330	0.666670	0.604000
C1091	C109	0.590300	0.409700	0.250000
C1101	C110	0.540300	0.459700	0.250000
C1111	C111	0.446400	0.553600	0.250000
H731	H73	0.415300	0.584700	0.250000
C1121	C112	0.590300	0.180600	0.250000
C1131	C113	0.540300	0.080600	0.250000
C1141	C114	0.446400	0.892800	0.250000
H741	H74	0.415300	0.830600	0.250000
C1151	C115	0.819400	0.409700	0.250000
C1161	C116	0.919400	0.459700	0.250000
C1171	C117	0.107200	0.553600	0.250000
H751	H75	0.169400	0.584700	0.250000
C1181	C118	0.409700	0.590300	0.750000
C1191	C119	0.459700	0.540300	0.750000
C1201	C120	0.553600	0.446400	0.750000
H761	H76	0.584700	0.415300	0.750000
C1211	C121	0.409700	0.819400	0.750000
C1221	C122	0.459700	0.919400	0.750000
C1231	C123	0.553600	0.107200	0.750000
H771	H77	0.584700	0.169400	0.750000
C1241	C124	0.180600	0.590300	0.750000
C1251	C125	0.080600	0.540300	0.750000
C1261	C126	0.892800	0.446400	0.750000
H781	H78	0.830600	0.415300	0.750000
