data_YOYSUB_clean_PM
_symmetry_space_group_name_H-M	'P1'
_cell_length_a	7.735100
_cell_length_b	10.817200
_cell_length_c	7.154000
_cell_angle_alpha	90.000000
_cell_angle_beta	90.000000
_cell_angle_gamma	90.000000
_symmetry_Int_Tables_number 1

loop_
_symmetry_equiv_pos_as_xyz
'x,y,z'

loop_
_atom_site_label
_atom_site_type_symbol
_atom_site_fract_x
_atom_site_fract_y
_atom_site_fract_z
N11	N1	0.091100	0.581550	0.395400
N21	N2	0.921400	0.592120	0.404100
C11	C1	0.163500	0.489300	0.490800
H11	H1	0.284000	0.481000	0.483000
N31	N3	0.908900	0.081550	0.604600
N41	N4	0.078600	0.092120	0.595900
C21	C2	0.836500	0.989300	0.509200
H21	H2	0.716000	0.981000	0.517000
N51	N5	0.908900	0.418450	0.604600
N61	N6	0.078600	0.407880	0.595900
C31	C3	0.836500	0.510700	0.509200
H31	H3	0.716000	0.519000	0.517000
N71	N7	0.091100	0.918450	0.395400
N81	N8	0.921400	0.907880	0.404100
C41	C4	0.163500	0.010700	0.490800
H41	H4	0.284000	0.019000	0.483000
Ag11	Ag1	0.274450	0.750000	0.292110
Ag21	Ag2	0.725550	0.250000	0.707890
N91	N9	0.408900	0.418450	0.895400
N101	N10	0.578600	0.407880	0.904100
C51	C5	0.336500	0.510700	0.990800
H51	H5	0.216000	0.519000	0.983000
N111	N11	0.591100	0.918450	0.104600
N121	N12	0.421400	0.907880	0.095900
C61	C6	0.663500	0.010700	0.009200
H61	H6	0.784000	0.019000	0.017000
N131	N13	0.591100	0.581550	0.104600
N141	N14	0.421400	0.592120	0.095900
C71	C7	0.663500	0.489300	0.009200
H71	H7	0.784000	0.481000	0.017000
N151	N15	0.408900	0.081550	0.895400
N161	N16	0.578600	0.092120	0.904100
C81	C8	0.336500	0.989300	0.990800
H81	H8	0.216000	0.981000	0.983000
Ag31	Ag3	0.225550	0.250000	0.792110
Ag41	Ag4	0.774450	0.750000	0.207890
