data_YOYTOX_clean_PM
_symmetry_space_group_name_H-M	'P1'
_cell_length_a	26.891300
_cell_length_b	26.891300
_cell_length_c	10.006900
_cell_angle_alpha	90.000000
_cell_angle_beta	90.000000
_cell_angle_gamma	120.000000
_symmetry_Int_Tables_number 1

loop_
_symmetry_equiv_pos_as_xyz
'x,y,z'

loop_
_atom_site_label
_atom_site_type_symbol
_atom_site_fract_x
_atom_site_fract_y
_atom_site_fract_z
N11	N1	0.441600	0.999900	0.146800
C11	C1	0.479900	0.875700	0.003900
H11	H1	0.519800	0.895700	0.004500
C21	C2	0.452000	0.816600	0.003500
H21	H2	0.472900	0.797600	0.004000
C31	C3	0.411800	0.008100	0.212400
N21	N2	0.108270	0.333230	0.480130
C41	C4	0.146570	0.209030	0.337230
H31	H3	0.186470	0.229030	0.337830
C51	C5	0.118670	0.149930	0.336830
H41	H4	0.139570	0.130930	0.337330
C61	C6	0.078470	0.341430	0.545730
N31	N3	0.774930	0.666570	0.813470
C71	C7	0.813230	0.542370	0.670570
H51	H5	0.853130	0.562370	0.671170
C81	C8	0.785330	0.483270	0.670170
H61	H6	0.806230	0.464270	0.670670
C91	C9	0.745130	0.674770	0.879070
N41	N4	0.000100	0.441700	0.146800
C101	C10	0.124300	0.604200	0.003900
H71	H7	0.104300	0.624100	0.004500
C111	C11	0.183400	0.635400	0.003500
H81	H8	0.202400	0.675300	0.004000
C121	C12	0.991900	0.403700	0.212400
N51	N5	0.666770	0.775030	0.480130
C131	C13	0.790970	0.937530	0.337230
H91	H9	0.770970	0.957430	0.337830
C141	C14	0.850070	0.968730	0.336830
H101	H10	0.869070	0.008630	0.337330
C151	C15	0.658570	0.737030	0.545730
N61	N6	0.333430	0.108370	0.813470
C161	C16	0.457630	0.270870	0.670570
H111	H11	0.437630	0.290770	0.671170
C171	C17	0.516730	0.302070	0.670170
H121	H12	0.535730	0.341970	0.670670
C181	C18	0.325230	0.070370	0.879070
N71	N7	0.558300	0.558400	0.146800
C191	C19	0.395800	0.520100	0.003900
H131	H13	0.375900	0.480200	0.004500
C201	C20	0.364600	0.548000	0.003500
H141	H14	0.324700	0.527100	0.004000
C211	C21	0.596300	0.588200	0.212400
N81	N8	0.224970	0.891730	0.480130
C221	C22	0.062470	0.853430	0.337230
H151	H15	0.042570	0.813530	0.337830
C231	C23	0.031270	0.881330	0.336830
H161	H16	0.991370	0.860430	0.337330
C241	C24	0.262970	0.921530	0.545730
N91	N9	0.891630	0.225070	0.813470
C251	C25	0.729130	0.186770	0.670570
H171	H17	0.709230	0.146870	0.671170
C261	C26	0.697930	0.214670	0.670170
H181	H18	0.658030	0.193770	0.670670
C271	C27	0.929630	0.254870	0.879070
N101	N10	0.999900	0.441600	0.853200
C281	C28	0.875700	0.479900	0.996100
H191	H19	0.895700	0.519800	0.995500
C291	C29	0.816600	0.452000	0.996500
H201	H20	0.797600	0.472900	0.996000
C301	C30	0.008100	0.411800	0.787600
N111	N11	0.666570	0.774930	0.186530
C311	C31	0.542370	0.813230	0.329430
H211	H21	0.562370	0.853130	0.328830
C321	C32	0.483270	0.785330	0.329830
H221	H22	0.464270	0.806230	0.329330
C331	C33	0.674770	0.745130	0.120930
N121	N12	0.333230	0.108270	0.519870
C341	C34	0.209030	0.146570	0.662770
H231	H23	0.229030	0.186470	0.662170
C351	C35	0.149930	0.118670	0.663170
H241	H24	0.130930	0.139570	0.662670
C361	C36	0.341430	0.078470	0.454270
N131	N13	0.441700	0.000100	0.853200
C371	C37	0.604200	0.124300	0.996100
H251	H25	0.624100	0.104300	0.995500
C381	C38	0.635400	0.183400	0.996500
H261	H26	0.675300	0.202400	0.996000
C391	C39	0.403700	0.991900	0.787600
N141	N14	0.108370	0.333430	0.186530
C401	C40	0.270870	0.457630	0.329430
H271	H27	0.290770	0.437630	0.328830
C411	C41	0.302070	0.516730	0.329830
H281	H28	0.341970	0.535730	0.329330
C421	C42	0.070370	0.325230	0.120930
N151	N15	0.775030	0.666770	0.519870
C431	C43	0.937530	0.790970	0.662770
H291	H29	0.957430	0.770970	0.662170
C441	C44	0.968730	0.850070	0.663170
H301	H30	0.008630	0.869070	0.662670
C451	C45	0.737030	0.658570	0.454270
N161	N16	0.558400	0.558300	0.853200
C461	C46	0.520100	0.395800	0.996100
H311	H31	0.480200	0.375900	0.995500
C471	C47	0.548000	0.364600	0.996500
H321	H32	0.527100	0.324700	0.996000
C481	C48	0.588200	0.596300	0.787600
N171	N17	0.225070	0.891630	0.186530
C491	C49	0.186770	0.729130	0.329430
H331	H33	0.146870	0.709230	0.328830
C501	C50	0.214670	0.697930	0.329830
H341	H34	0.193770	0.658030	0.329330
C511	C51	0.254870	0.929630	0.120930
N181	N18	0.891730	0.224970	0.519870
C521	C52	0.853430	0.062470	0.662770
H351	H35	0.813530	0.042570	0.662170
C531	C53	0.881330	0.031270	0.663170
H361	H36	0.860430	0.991370	0.662670
C541	C54	0.921530	0.262970	0.454270
N191	N19	0.558400	0.000100	0.853200
C551	C55	0.520100	0.124300	0.996100
H371	H37	0.480200	0.104300	0.995500
C561	C56	0.548000	0.183400	0.996500
H381	H38	0.527100	0.202400	0.996000
C571	C57	0.588200	0.991900	0.787600
N201	N20	0.225070	0.333430	0.186530
C581	C58	0.186770	0.457630	0.329430
H391	H39	0.146870	0.437630	0.328830
C591	C59	0.214670	0.516730	0.329830
H401	H40	0.193770	0.535730	0.329330
C601	C60	0.254870	0.325230	0.120930
N211	N21	0.891730	0.666770	0.519870
C611	C61	0.853430	0.790970	0.662770
H411	H41	0.813530	0.770970	0.662170
C621	C62	0.881330	0.850070	0.663170
H421	H42	0.860430	0.869070	0.662670
C631	C63	0.921530	0.658570	0.454270
N221	N22	0.999900	0.558300	0.853200
C641	C64	0.875700	0.395800	0.996100
H431	H43	0.895700	0.375900	0.995500
C651	C65	0.816600	0.364600	0.996500
H441	H44	0.797600	0.324700	0.996000
C661	C66	0.008100	0.596300	0.787600
N231	N23	0.666570	0.891630	0.186530
C671	C67	0.542370	0.729130	0.329430
H451	H45	0.562370	0.709230	0.328830
C681	C68	0.483270	0.697930	0.329830
H461	H46	0.464270	0.658030	0.329330
C691	C69	0.674770	0.929630	0.120930
N241	N24	0.333230	0.224970	0.519870
C701	C70	0.209030	0.062470	0.662770
H471	H47	0.229030	0.042570	0.662170
C711	C71	0.149930	0.031270	0.663170
H481	H48	0.130930	0.991370	0.662670
C721	C72	0.341430	0.262970	0.454270
N251	N25	0.441700	0.441600	0.853200
C731	C73	0.604200	0.479900	0.996100
H491	H49	0.624100	0.519800	0.995500
C741	C74	0.635400	0.452000	0.996500
H501	H50	0.675300	0.472900	0.996000
C751	C75	0.403700	0.411800	0.787600
N261	N26	0.108370	0.774930	0.186530
C761	C76	0.270870	0.813230	0.329430
H511	H51	0.290770	0.853130	0.328830
C771	C77	0.302070	0.785330	0.329830
H521	H52	0.341970	0.806230	0.329330
C781	C78	0.070370	0.745130	0.120930
N271	N27	0.775030	0.108270	0.519870
C791	C79	0.937530	0.146570	0.662770
H531	H53	0.957430	0.186470	0.662170
C801	C80	0.968730	0.118670	0.663170
H541	H54	0.008630	0.139570	0.662670
C811	C81	0.737030	0.078470	0.454270
N281	N28	0.000100	0.558400	0.146800
C821	C82	0.124300	0.520100	0.003900
H551	H55	0.104300	0.480200	0.004500
C831	C83	0.183400	0.548000	0.003500
H561	H56	0.202400	0.527100	0.004000
C841	C84	0.991900	0.588200	0.212400
N291	N29	0.666770	0.891730	0.480130
C851	C85	0.790970	0.853430	0.337230
H571	H57	0.770970	0.813530	0.337830
C861	C86	0.850070	0.881330	0.336830
H581	H58	0.869070	0.860430	0.337330
C871	C87	0.658570	0.921530	0.545730
N301	N30	0.333430	0.225070	0.813470
C881	C88	0.457630	0.186770	0.670570
H591	H59	0.437630	0.146870	0.671170
C891	C89	0.516730	0.214670	0.670170
H601	H60	0.535730	0.193770	0.670670
C901	C90	0.325230	0.254870	0.879070
N311	N31	0.558300	0.999900	0.146800
C911	C91	0.395800	0.875700	0.003900
H611	H61	0.375900	0.895700	0.004500
C921	C92	0.364600	0.816600	0.003500
H621	H62	0.324700	0.797600	0.004000
C931	C93	0.596300	0.008100	0.212400
N321	N32	0.224970	0.333230	0.480130
C941	C94	0.062470	0.209030	0.337230
H631	H63	0.042570	0.229030	0.337830
C951	C95	0.031270	0.149930	0.336830
H641	H64	0.991370	0.130930	0.337330
C961	C96	0.262970	0.341430	0.545730
N331	N33	0.891630	0.666570	0.813470
C971	C97	0.729130	0.542370	0.670570
H651	H65	0.709230	0.562370	0.671170
C981	C98	0.697930	0.483270	0.670170
H661	H66	0.658030	0.464270	0.670670
C991	C99	0.929630	0.674770	0.879070
N341	N34	0.441600	0.441700	0.146800
C1001	C100	0.479900	0.604200	0.003900
H671	H67	0.519800	0.624100	0.004500
C1011	C101	0.452000	0.635400	0.003500
H681	H68	0.472900	0.675300	0.004000
C1021	C102	0.411800	0.403700	0.212400
N351	N35	0.108270	0.775030	0.480130
C1031	C103	0.146570	0.937530	0.337230
H691	H69	0.186470	0.957430	0.337830
C1041	C104	0.118670	0.968730	0.336830
H701	H70	0.139570	0.008630	0.337330
C1051	C105	0.078470	0.737030	0.545730
N361	N36	0.774930	0.108370	0.813470
C1061	C106	0.813230	0.270870	0.670570
H711	H71	0.853130	0.290770	0.671170
C1071	C107	0.785330	0.302070	0.670170
H721	H72	0.806230	0.341970	0.670670
C1081	C108	0.745130	0.070370	0.879070
Ag11	Ag1	0.368850	0.035520	0.333330
Ag21	Ag2	0.964480	0.333330	0.333330
Ag31	Ag3	0.666670	0.631150	0.333330
Ag41	Ag4	0.035520	0.368850	0.666670
Ag51	Ag5	0.702180	0.702180	0.000000
Ag61	Ag6	0.333330	0.964480	0.666670
Ag71	Ag7	0.000000	0.297820	0.000000
Ag81	Ag8	0.631150	0.666670	0.666670
Ag91	Ag9	0.297820	0.000000	0.000000
Ag101	Ag10	0.631150	0.964480	0.666670
Ag111	Ag11	0.297820	0.297820	0.000000
Ag121	Ag12	0.035520	0.666670	0.666670
Ag131	Ag13	0.702180	0.000000	0.000000
Ag141	Ag14	0.368850	0.333330	0.333330
Ag151	Ag15	0.333330	0.368850	0.666670
Ag161	Ag16	0.000000	0.702180	0.000000
Ag171	Ag17	0.964480	0.631150	0.333330
Ag181	Ag18	0.666670	0.035520	0.333330
Fe11	Fe1	0.500000	0.000000	0.000000
Fe21	Fe2	0.166670	0.333330	0.333330
Fe31	Fe3	0.833330	0.666670	0.666670
Fe41	Fe4	0.000000	0.500000	0.000000
Fe51	Fe5	0.666670	0.833330	0.333330
Fe61	Fe6	0.333330	0.166670	0.666670
Fe71	Fe7	0.500000	0.500000	0.000000
Fe81	Fe8	0.166670	0.833330	0.333330
Fe91	Fe9	0.833330	0.166670	0.666670
N371	N37	0.452750	0.905500	0.003600
C1091	C109	0.392950	0.785900	0.002200
C1101	C110	0.361350	0.722700	0.001700
N381	N38	0.119420	0.238830	0.336930
C1111	C111	0.059620	0.119230	0.335530
C1121	C112	0.028020	0.056030	0.335030
N391	N39	0.786080	0.572170	0.670270
C1131	C113	0.726280	0.452570	0.668870
C1141	C114	0.694680	0.389370	0.668370
N401	N40	0.094500	0.547250	0.003600
C1151	C115	0.214100	0.607050	0.002200
C1161	C116	0.277300	0.638650	0.001700
N411	N41	0.761170	0.880580	0.336930
C1171	C117	0.880770	0.940380	0.335530
C1181	C118	0.943970	0.971980	0.335030
N421	N42	0.427830	0.213920	0.670270
C1191	C119	0.547430	0.273720	0.668870
C1201	C120	0.610630	0.305320	0.668370
N431	N43	0.452750	0.547250	0.003600
C1211	C121	0.392950	0.607050	0.002200
C1221	C122	0.361350	0.638650	0.001700
N441	N44	0.119420	0.880580	0.336930
C1231	C123	0.059620	0.940380	0.335530
C1241	C124	0.028020	0.971980	0.335030
N451	N45	0.786080	0.213920	0.670270
C1251	C125	0.726280	0.273720	0.668870
C1261	C126	0.694680	0.305320	0.668370
N461	N46	0.905500	0.452750	0.996400
C1271	C127	0.785900	0.392950	0.997800
C1281	C128	0.722700	0.361350	0.998300
N471	N47	0.572170	0.786080	0.329730
C1291	C129	0.452570	0.726280	0.331130
C1301	C130	0.389370	0.694680	0.331630
N481	N48	0.238830	0.119420	0.663070
C1311	C131	0.119230	0.059620	0.664470
C1321	C132	0.056030	0.028020	0.664970
N491	N49	0.547250	0.094500	0.996400
C1331	C133	0.607050	0.214100	0.997800
C1341	C134	0.638650	0.277300	0.998300
N501	N50	0.213920	0.427830	0.329730
C1351	C135	0.273720	0.547430	0.331130
C1361	C136	0.305320	0.610630	0.331630
N511	N51	0.880580	0.761170	0.663070
C1371	C137	0.940380	0.880770	0.664470
C1381	C138	0.971980	0.943970	0.664970
N521	N52	0.547250	0.452750	0.996400
C1391	C139	0.607050	0.392950	0.997800
C1401	C140	0.638650	0.361350	0.998300
N531	N53	0.213920	0.786080	0.329730
C1411	C141	0.273720	0.726280	0.331130
C1421	C142	0.305320	0.694680	0.331630
N541	N54	0.880580	0.119420	0.663070
C1431	C143	0.940380	0.059620	0.664470
C1441	C144	0.971980	0.028020	0.664970
N551	N55	0.303970	0.696030	0.002600
N561	N56	0.970640	0.029360	0.335930
N571	N57	0.637300	0.362700	0.669270
N581	N58	0.303970	0.607940	0.002600
N591	N59	0.970640	0.941270	0.335930
N601	N60	0.637300	0.274610	0.669270
N611	N61	0.392060	0.696030	0.002600
N621	N62	0.058730	0.029360	0.335930
N631	N63	0.725390	0.362700	0.669270
N641	N64	0.696030	0.303970	0.997400
N651	N65	0.362700	0.637300	0.330730
N661	N66	0.029360	0.970640	0.664070
N671	N67	0.607940	0.303970	0.997400
N681	N68	0.274610	0.637300	0.330730
N691	N69	0.941270	0.970640	0.664070
N701	N70	0.696030	0.392060	0.997400
N711	N71	0.362700	0.725390	0.330730
N721	N72	0.029360	0.058730	0.664070
