data_YOYTUD_clean_PM
_symmetry_space_group_name_H-M	'P1'
_cell_length_a	26.200300
_cell_length_b	26.200300
_cell_length_c	9.801400
_cell_angle_alpha	90.000000
_cell_angle_beta	90.000000
_cell_angle_gamma	120.000000
_symmetry_Int_Tables_number 1

loop_
_symmetry_equiv_pos_as_xyz
'x,y,z'

loop_
_atom_site_label
_atom_site_type_symbol
_atom_site_fract_x
_atom_site_fract_y
_atom_site_fract_z
N11	N1	0.447400	0.003300	0.137800
C11	C1	0.396400	0.881400	0.010400
H11	H1	0.375900	0.901900	0.012000
C21	C2	0.365200	0.821400	0.009100
H21	H2	0.324200	0.801800	0.009300
C31	C3	0.415200	0.008700	0.210100
N21	N2	0.114070	0.336630	0.471130
C41	C4	0.063070	0.214730	0.343730
H31	H3	0.042570	0.235230	0.345330
C51	C5	0.031870	0.154730	0.342430
H41	H4	0.990870	0.135130	0.342630
C61	C6	0.081870	0.342030	0.543430
N31	N3	0.780730	0.669970	0.804470
C71	C7	0.729730	0.548070	0.677070
H51	H5	0.709230	0.568570	0.678670
C81	C8	0.698530	0.488070	0.675770
H61	H6	0.657530	0.468470	0.675970
C91	C9	0.748530	0.675370	0.876770
N41	N4	0.996700	0.444100	0.137800
C101	C10	0.118600	0.515000	0.010400
H71	H7	0.098100	0.474000	0.012000
C111	C11	0.178600	0.543800	0.009100
H81	H8	0.198200	0.522400	0.009300
C121	C12	0.991300	0.406500	0.210100
N51	N5	0.663370	0.777430	0.471130
C131	C13	0.785270	0.848330	0.343730
H91	H9	0.764770	0.807330	0.345330
C141	C14	0.845270	0.877130	0.342430
H101	H10	0.864870	0.855730	0.342630
C151	C15	0.657970	0.739830	0.543430
N61	N6	0.330030	0.110770	0.804470
C161	C16	0.451930	0.181670	0.677070
H111	H11	0.431430	0.140670	0.678670
C171	C17	0.511930	0.210470	0.675770
H121	H12	0.531530	0.189070	0.675970
C181	C18	0.324630	0.073170	0.876770
N71	N7	0.555900	0.552600	0.137800
C191	C19	0.485000	0.603600	0.010400
H131	H13	0.526000	0.624100	0.012000
C201	C20	0.456200	0.634800	0.009100
H141	H14	0.477600	0.675800	0.009300
C211	C21	0.593500	0.584800	0.210100
N81	N8	0.222570	0.885930	0.471130
C221	C22	0.151670	0.936930	0.343730
H151	H15	0.192670	0.957430	0.345330
C231	C23	0.122870	0.968130	0.342430
H161	H16	0.144270	0.009130	0.342630
C241	C24	0.260170	0.918130	0.543430
N91	N9	0.889230	0.219270	0.804470
C251	C25	0.818330	0.270270	0.677070
H171	H17	0.859330	0.290770	0.678670
C261	C26	0.789530	0.301470	0.675770
H181	H18	0.810930	0.342470	0.675970
C271	C27	0.926830	0.251470	0.876770
N101	N10	0.003300	0.447400	0.862200
C281	C28	0.881400	0.396400	0.989600
H191	H19	0.901900	0.375900	0.988000
C291	C29	0.821400	0.365200	0.990900
H201	H20	0.801800	0.324200	0.990700
C301	C30	0.008700	0.415200	0.789900
N111	N11	0.669970	0.780730	0.195530
C311	C31	0.548070	0.729730	0.322930
H211	H21	0.568570	0.709230	0.321330
C321	C32	0.488070	0.698530	0.324230
H221	H22	0.468470	0.657530	0.324030
C331	C33	0.675370	0.748530	0.123230
N121	N12	0.336630	0.114070	0.528870
C341	C34	0.214730	0.063070	0.656270
H231	H23	0.235230	0.042570	0.654670
C351	C35	0.154730	0.031870	0.657570
H241	H24	0.135130	0.990870	0.657370
C361	C36	0.342030	0.081870	0.456570
N131	N13	0.444100	0.996700	0.862200
C371	C37	0.515000	0.118600	0.989600
H251	H25	0.474000	0.098100	0.988000
C381	C38	0.543800	0.178600	0.990900
H261	H26	0.522400	0.198200	0.990700
C391	C39	0.406500	0.991300	0.789900
N141	N14	0.110770	0.330030	0.195530
C401	C40	0.181670	0.451930	0.322930
H271	H27	0.140670	0.431430	0.321330
C411	C41	0.210470	0.511930	0.324230
H281	H28	0.189070	0.531530	0.324030
C421	C42	0.073170	0.324630	0.123230
N151	N15	0.777430	0.663370	0.528870
C431	C43	0.848330	0.785270	0.656270
H291	H29	0.807330	0.764770	0.654670
C441	C44	0.877130	0.845270	0.657570
H301	H30	0.855730	0.864870	0.657370
C451	C45	0.739830	0.657970	0.456570
N161	N16	0.552600	0.555900	0.862200
C461	C46	0.603600	0.485000	0.989600
H311	H31	0.624100	0.526000	0.988000
C471	C47	0.634800	0.456200	0.990900
H321	H32	0.675800	0.477600	0.990700
C481	C48	0.584800	0.593500	0.789900
N171	N17	0.219270	0.889230	0.195530
C491	C49	0.270270	0.818330	0.322930
H331	H33	0.290770	0.859330	0.321330
C501	C50	0.301470	0.789530	0.324230
H341	H34	0.342470	0.810930	0.324030
C511	C51	0.251470	0.926830	0.123230
N181	N18	0.885930	0.222570	0.528870
C521	C52	0.936930	0.151670	0.656270
H351	H35	0.957430	0.192670	0.654670
C531	C53	0.968130	0.122870	0.657570
H361	H36	0.009130	0.144270	0.657370
C541	C54	0.918130	0.260170	0.456570
N191	N19	0.552600	0.996700	0.862200
C551	C55	0.603600	0.118600	0.989600
H371	H37	0.624100	0.098100	0.988000
C561	C56	0.634800	0.178600	0.990900
H381	H38	0.675800	0.198200	0.990700
C571	C57	0.584800	0.991300	0.789900
N201	N20	0.219270	0.330030	0.195530
C581	C58	0.270270	0.451930	0.322930
H391	H39	0.290770	0.431430	0.321330
C591	C59	0.301470	0.511930	0.324230
H401	H40	0.342470	0.531530	0.324030
C601	C60	0.251470	0.324630	0.123230
N211	N21	0.885930	0.663370	0.528870
C611	C61	0.936930	0.785270	0.656270
H411	H41	0.957430	0.764770	0.654670
C621	C62	0.968130	0.845270	0.657570
H421	H42	0.009130	0.864870	0.657370
C631	C63	0.918130	0.657970	0.456570
N221	N22	0.003300	0.555900	0.862200
C641	C64	0.881400	0.485000	0.989600
H431	H43	0.901900	0.526000	0.988000
C651	C65	0.821400	0.456200	0.990900
H441	H44	0.801800	0.477600	0.990700
C661	C66	0.008700	0.593500	0.789900
N231	N23	0.669970	0.889230	0.195530
C671	C67	0.548070	0.818330	0.322930
H451	H45	0.568570	0.859330	0.321330
C681	C68	0.488070	0.789530	0.324230
H461	H46	0.468470	0.810930	0.324030
C691	C69	0.675370	0.926830	0.123230
N241	N24	0.336630	0.222570	0.528870
C701	C70	0.214730	0.151670	0.656270
H471	H47	0.235230	0.192670	0.654670
C711	C71	0.154730	0.122870	0.657570
H481	H48	0.135130	0.144270	0.657370
C721	C72	0.342030	0.260170	0.456570
N251	N25	0.444100	0.447400	0.862200
C731	C73	0.515000	0.396400	0.989600
H491	H49	0.474000	0.375900	0.988000
C741	C74	0.543800	0.365200	0.990900
H501	H50	0.522400	0.324200	0.990700
C751	C75	0.406500	0.415200	0.789900
N261	N26	0.110770	0.780730	0.195530
C761	C76	0.181670	0.729730	0.322930
H511	H51	0.140670	0.709230	0.321330
C771	C77	0.210470	0.698530	0.324230
H521	H52	0.189070	0.657530	0.324030
C781	C78	0.073170	0.748530	0.123230
N271	N27	0.777430	0.114070	0.528870
C791	C79	0.848330	0.063070	0.656270
H531	H53	0.807330	0.042570	0.654670
C801	C80	0.877130	0.031870	0.657570
H541	H54	0.855730	0.990870	0.657370
C811	C81	0.739830	0.081870	0.456570
N281	N28	0.996700	0.552600	0.137800
C821	C82	0.118600	0.603600	0.010400
H551	H55	0.098100	0.624100	0.012000
C831	C83	0.178600	0.634800	0.009100
H561	H56	0.198200	0.675800	0.009300
C841	C84	0.991300	0.584800	0.210100
N291	N29	0.663370	0.885930	0.471130
C851	C85	0.785270	0.936930	0.343730
H571	H57	0.764770	0.957430	0.345330
C861	C86	0.845270	0.968130	0.342430
H581	H58	0.864870	0.009130	0.342630
C871	C87	0.657970	0.918130	0.543430
N301	N30	0.330030	0.219270	0.804470
C881	C88	0.451930	0.270270	0.677070
H591	H59	0.431430	0.290770	0.678670
C891	C89	0.511930	0.301470	0.675770
H601	H60	0.531530	0.342470	0.675970
C901	C90	0.324630	0.251470	0.876770
N311	N31	0.555900	0.003300	0.137800
C911	C91	0.485000	0.881400	0.010400
H611	H61	0.526000	0.901900	0.012000
C921	C92	0.456200	0.821400	0.009100
H621	H62	0.477600	0.801800	0.009300
C931	C93	0.593500	0.008700	0.210100
N321	N32	0.222570	0.336630	0.471130
C941	C94	0.151670	0.214730	0.343730
H631	H63	0.192670	0.235230	0.345330
C951	C95	0.122870	0.154730	0.342430
H641	H64	0.144270	0.135130	0.342630
C961	C96	0.260170	0.342030	0.543430
N331	N33	0.889230	0.669970	0.804470
C971	C97	0.818330	0.548070	0.677070
H651	H65	0.859330	0.568570	0.678670
C981	C98	0.789530	0.488070	0.675770
H661	H66	0.810930	0.468470	0.675970
C991	C99	0.926830	0.675370	0.876770
N341	N34	0.447400	0.444100	0.137800
C1001	C100	0.396400	0.515000	0.010400
H671	H67	0.375900	0.474000	0.012000
C1011	C101	0.365200	0.543800	0.009100
H681	H68	0.324200	0.522400	0.009300
C1021	C102	0.415200	0.406500	0.210100
N351	N35	0.114070	0.777430	0.471130
C1031	C103	0.063070	0.848330	0.343730
H691	H69	0.042570	0.807330	0.345330
C1041	C104	0.031870	0.877130	0.342430
H701	H70	0.990870	0.855730	0.342630
C1051	C105	0.081870	0.739830	0.543430
N361	N36	0.780730	0.110770	0.804470
C1061	C106	0.729730	0.181670	0.677070
H711	H71	0.709230	0.140670	0.678670
C1071	C107	0.698530	0.210470	0.675770
H721	H72	0.657530	0.189070	0.675970
C1081	C108	0.748530	0.073170	0.876770
N371	N37	0.456300	0.912600	0.009500
C1091	C109	0.394700	0.789400	0.007300
C1101	C110	0.362100	0.724200	0.004700
N381	N38	0.122970	0.245930	0.342830
C1111	C111	0.061370	0.122730	0.340630
C1121	C112	0.028770	0.057530	0.338030
N391	N39	0.789630	0.579270	0.676170
C1131	C113	0.728030	0.456070	0.673970
C1141	C114	0.695430	0.390870	0.671370
N401	N40	0.087400	0.543700	0.009500
C1151	C115	0.210600	0.605300	0.007300
C1161	C116	0.275800	0.637900	0.004700
N411	N41	0.754070	0.877030	0.342830
C1171	C117	0.877270	0.938630	0.340630
C1181	C118	0.942470	0.971230	0.338030
N421	N42	0.420730	0.210370	0.676170
C1191	C119	0.543930	0.271970	0.673970
C1201	C120	0.609130	0.304570	0.671370
N431	N43	0.456300	0.543700	0.009500
C1211	C121	0.394700	0.605300	0.007300
C1221	C122	0.362100	0.637900	0.004700
N441	N44	0.122970	0.877030	0.342830
C1231	C123	0.061370	0.938630	0.340630
C1241	C124	0.028770	0.971230	0.338030
N451	N45	0.789630	0.210370	0.676170
C1251	C125	0.728030	0.271970	0.673970
C1261	C126	0.695430	0.304570	0.671370
N461	N46	0.912600	0.456300	0.990500
C1271	C127	0.789400	0.394700	0.992700
C1281	C128	0.724200	0.362100	0.995300
N471	N47	0.579270	0.789630	0.323830
C1291	C129	0.456070	0.728030	0.326030
C1301	C130	0.390870	0.695430	0.328630
N481	N48	0.245930	0.122970	0.657170
C1311	C131	0.122730	0.061370	0.659370
C1321	C132	0.057530	0.028770	0.661970
N491	N49	0.543700	0.087400	0.990500
C1331	C133	0.605300	0.210600	0.992700
C1341	C134	0.637900	0.275800	0.995300
N501	N50	0.210370	0.420730	0.323830
C1351	C135	0.271970	0.543930	0.326030
C1361	C136	0.304570	0.609130	0.328630
N511	N51	0.877030	0.754070	0.657170
C1371	C137	0.938630	0.877270	0.659370
C1381	C138	0.971230	0.942470	0.661970
N521	N52	0.543700	0.456300	0.990500
C1391	C139	0.605300	0.394700	0.992700
C1401	C140	0.637900	0.362100	0.995300
N531	N53	0.210370	0.789630	0.323830
C1411	C141	0.271970	0.728030	0.326030
C1421	C142	0.304570	0.695430	0.328630
N541	N54	0.877030	0.122970	0.657170
C1431	C143	0.938630	0.061370	0.659370
C1441	C144	0.971230	0.028770	0.661970
Ag11	Ag1	0.369400	0.036060	0.333330
Ag21	Ag2	0.963940	0.333330	0.333330
Ag31	Ag3	0.666670	0.630600	0.333330
Ag41	Ag4	0.036060	0.369400	0.666670
Ag51	Ag5	0.702730	0.702730	0.000000
Ag61	Ag6	0.333330	0.963940	0.666670
Ag71	Ag7	0.000000	0.297270	0.000000
Ag81	Ag8	0.630600	0.666670	0.666670
Ag91	Ag9	0.297270	0.000000	0.000000
Ag101	Ag10	0.630600	0.963940	0.666670
Ag111	Ag11	0.297270	0.297270	0.000000
Ag121	Ag12	0.036060	0.666670	0.666670
Ag131	Ag13	0.702730	0.000000	0.000000
Ag141	Ag14	0.369400	0.333330	0.333330
Ag151	Ag15	0.333330	0.369400	0.666670
Ag161	Ag16	0.000000	0.702730	0.000000
Ag171	Ag17	0.963940	0.630600	0.333330
Ag181	Ag18	0.666670	0.036060	0.333330
Fe11	Fe1	0.500000	0.000000	0.000000
Fe21	Fe2	0.166670	0.333330	0.333330
Fe31	Fe3	0.833330	0.666670	0.666670
Fe41	Fe4	0.000000	0.500000	0.000000
Fe51	Fe5	0.666670	0.833330	0.333330
Fe61	Fe6	0.333330	0.166670	0.666670
Fe71	Fe7	0.500000	0.500000	0.000000
Fe81	Fe8	0.166670	0.833330	0.333330
Fe91	Fe9	0.833330	0.166670	0.666670
N551	N55	0.393700	0.696850	0.005600
N561	N56	0.060370	0.030180	0.338930
N571	N57	0.727030	0.363520	0.672270
N581	N58	0.303150	0.696850	0.005600
N591	N59	0.969820	0.030180	0.338930
N601	N60	0.636480	0.363520	0.672270
N611	N61	0.303150	0.606300	0.005600
N621	N62	0.969820	0.939630	0.338930
N631	N63	0.636480	0.272970	0.672270
N641	N64	0.696850	0.393700	0.994400
N651	N65	0.363520	0.727030	0.327730
N661	N66	0.030180	0.060370	0.661070
N671	N67	0.696850	0.303150	0.994400
N681	N68	0.363520	0.636480	0.327730
N691	N69	0.030180	0.969820	0.661070
N701	N70	0.606300	0.303150	0.994400
N711	N71	0.272970	0.636480	0.327730
N721	N72	0.939630	0.969820	0.661070
