data_YOYVAL_clean_PM
_symmetry_space_group_name_H-M	'P1'
_cell_length_a	26.882400
_cell_length_b	26.882400
_cell_length_c	10.207200
_cell_angle_alpha	90.000000
_cell_angle_beta	90.000000
_cell_angle_gamma	120.000000
_symmetry_Int_Tables_number 1

loop_
_symmetry_equiv_pos_as_xyz
'x,y,z'

loop_
_atom_site_label
_atom_site_type_symbol
_atom_site_fract_x
_atom_site_fract_y
_atom_site_fract_z
N11	N1	0.439900	0.998100	0.857000
C11	C1	0.395600	0.875800	0.009800
H11	H1	0.375800	0.895900	0.009700
C21	C2	0.364500	0.816700	0.009500
H21	H2	0.324600	0.797900	0.010300
C31	C3	0.402400	0.990600	0.789400
N21	N2	0.106570	0.331430	0.190330
C41	C4	0.062270	0.209130	0.343130
H31	H3	0.042470	0.229230	0.343030
C51	C5	0.031170	0.150030	0.342830
H41	H4	0.991270	0.131230	0.343630
C61	C6	0.069070	0.323930	0.122730
N31	N3	0.773230	0.664770	0.523670
C71	C7	0.728930	0.542470	0.676470
H51	H5	0.709130	0.562570	0.676370
C81	C8	0.697830	0.483370	0.676170
H61	H6	0.657930	0.464570	0.676970
C91	C9	0.735730	0.657270	0.456070
N41	N4	0.001900	0.441800	0.857000
C101	C10	0.124200	0.519800	0.009800
H71	H7	0.104100	0.479900	0.009700
C111	C11	0.183300	0.547800	0.009500
H81	H8	0.202100	0.526700	0.010300
C121	C12	0.009400	0.411800	0.789400
N51	N5	0.668570	0.775130	0.190330
C131	C13	0.790870	0.853130	0.343130
H91	H9	0.770770	0.813230	0.343030
C141	C14	0.849970	0.881130	0.342830
H101	H10	0.868770	0.860030	0.343630
C151	C15	0.676070	0.745130	0.122730
N61	N6	0.335230	0.108470	0.523670
C161	C16	0.457530	0.186470	0.676470
H111	H11	0.437430	0.146570	0.676370
C171	C17	0.516630	0.214470	0.676170
H121	H12	0.535430	0.193370	0.676970
C181	C18	0.342730	0.078470	0.456070
N71	N7	0.558200	0.560100	0.857000
C191	C19	0.480200	0.604400	0.009800
H131	H13	0.520100	0.624200	0.009700
C201	C20	0.452200	0.635500	0.009500
H141	H14	0.473300	0.675400	0.010300
C211	C21	0.588200	0.597600	0.789400
N81	N8	0.224870	0.893430	0.190330
C221	C22	0.146870	0.937730	0.343130
H151	H15	0.186770	0.957530	0.343030
C231	C23	0.118870	0.968830	0.342830
H161	H16	0.139970	0.008730	0.343630
C241	C24	0.254870	0.930930	0.122730
N91	N9	0.891530	0.226770	0.523670
C251	C25	0.813530	0.271070	0.676470
H171	H17	0.853430	0.290870	0.676370
C261	C26	0.785530	0.302170	0.676170
H181	H18	0.806630	0.342070	0.676970
C271	C27	0.921530	0.264270	0.456070
N101	N10	0.998100	0.439900	0.143000
C281	C28	0.875800	0.395600	0.990200
H191	H19	0.895900	0.375800	0.990300
C291	C29	0.816700	0.364500	0.990500
H201	H20	0.797900	0.324600	0.989700
C301	C30	0.990600	0.402400	0.210600
N111	N11	0.664770	0.773230	0.476330
C311	C31	0.542470	0.728930	0.323530
H211	H21	0.562570	0.709130	0.323630
C321	C32	0.483370	0.697830	0.323830
H221	H22	0.464570	0.657930	0.323030
C331	C33	0.657270	0.735730	0.543930
N121	N12	0.331430	0.106570	0.809670
C341	C34	0.209130	0.062270	0.656870
H231	H23	0.229230	0.042470	0.656970
C351	C35	0.150030	0.031170	0.657170
H241	H24	0.131230	0.991270	0.656370
C361	C36	0.323930	0.069070	0.877270
N131	N13	0.441800	0.001900	0.143000
C371	C37	0.519800	0.124200	0.990200
H251	H25	0.479900	0.104100	0.990300
C381	C38	0.547800	0.183300	0.990500
H261	H26	0.526700	0.202100	0.989700
C391	C39	0.411800	0.009400	0.210600
N141	N14	0.108470	0.335230	0.476330
C401	C40	0.186470	0.457530	0.323530
H271	H27	0.146570	0.437430	0.323630
C411	C41	0.214470	0.516630	0.323830
H281	H28	0.193370	0.535430	0.323030
C421	C42	0.078470	0.342730	0.543930
N151	N15	0.775130	0.668570	0.809670
C431	C43	0.853130	0.790870	0.656870
H291	H29	0.813230	0.770770	0.656970
C441	C44	0.881130	0.849970	0.657170
H301	H30	0.860030	0.868770	0.656370
C451	C45	0.745130	0.676070	0.877270
N161	N16	0.560100	0.558200	0.143000
C461	C46	0.604400	0.480200	0.990200
H311	H31	0.624200	0.520100	0.990300
C471	C47	0.635500	0.452200	0.990500
H321	H32	0.675400	0.473300	0.989700
C481	C48	0.597600	0.588200	0.210600
N171	N17	0.226770	0.891530	0.476330
C491	C49	0.271070	0.813530	0.323530
H331	H33	0.290870	0.853430	0.323630
C501	C50	0.302170	0.785530	0.323830
H341	H34	0.342070	0.806630	0.323030
C511	C51	0.264270	0.921530	0.543930
N181	N18	0.893430	0.224870	0.809670
C521	C52	0.937730	0.146870	0.656870
H351	H35	0.957530	0.186770	0.656970
C531	C53	0.968830	0.118870	0.657170
H361	H36	0.008730	0.139970	0.656370
C541	C54	0.930930	0.254870	0.877270
N191	N19	0.560100	0.001900	0.143000
C551	C55	0.604400	0.124200	0.990200
H371	H37	0.624200	0.104100	0.990300
C561	C56	0.635500	0.183300	0.990500
H381	H38	0.675400	0.202100	0.989700
C571	C57	0.597600	0.009400	0.210600
N201	N20	0.226770	0.335230	0.476330
C581	C58	0.271070	0.457530	0.323530
H391	H39	0.290870	0.437430	0.323630
C591	C59	0.302170	0.516630	0.323830
H401	H40	0.342070	0.535430	0.323030
C601	C60	0.264270	0.342730	0.543930
N211	N21	0.893430	0.668570	0.809670
C611	C61	0.937730	0.790870	0.656870
H411	H41	0.957530	0.770770	0.656970
C621	C62	0.968830	0.849970	0.657170
H421	H42	0.008730	0.868770	0.656370
C631	C63	0.930930	0.676070	0.877270
N221	N22	0.998100	0.558200	0.143000
C641	C64	0.875800	0.480200	0.990200
H431	H43	0.895900	0.520100	0.990300
C651	C65	0.816700	0.452200	0.990500
H441	H44	0.797900	0.473300	0.989700
C661	C66	0.990600	0.588200	0.210600
N231	N23	0.664770	0.891530	0.476330
C671	C67	0.542470	0.813530	0.323530
H451	H45	0.562570	0.853430	0.323630
C681	C68	0.483370	0.785530	0.323830
H461	H46	0.464570	0.806630	0.323030
C691	C69	0.657270	0.921530	0.543930
N241	N24	0.331430	0.224870	0.809670
C701	C70	0.209130	0.146870	0.656870
H471	H47	0.229230	0.186770	0.656970
C711	C71	0.150030	0.118870	0.657170
H481	H48	0.131230	0.139970	0.656370
C721	C72	0.323930	0.254870	0.877270
N251	N25	0.441800	0.439900	0.143000
C731	C73	0.519800	0.395600	0.990200
H491	H49	0.479900	0.375800	0.990300
C741	C74	0.547800	0.364500	0.990500
H501	H50	0.526700	0.324600	0.989700
C751	C75	0.411800	0.402400	0.210600
N261	N26	0.108470	0.773230	0.476330
C761	C76	0.186470	0.728930	0.323530
H511	H51	0.146570	0.709130	0.323630
C771	C77	0.214470	0.697830	0.323830
H521	H52	0.193370	0.657930	0.323030
C781	C78	0.078470	0.735730	0.543930
N271	N27	0.775130	0.106570	0.809670
C791	C79	0.853130	0.062270	0.656870
H531	H53	0.813230	0.042470	0.656970
C801	C80	0.881130	0.031170	0.657170
H541	H54	0.860030	0.991270	0.656370
C811	C81	0.745130	0.069070	0.877270
N281	N28	0.001900	0.560100	0.857000
C821	C82	0.124200	0.604400	0.009800
H551	H55	0.104100	0.624200	0.009700
C831	C83	0.183300	0.635500	0.009500
H561	H56	0.202100	0.675400	0.010300
C841	C84	0.009400	0.597600	0.789400
N291	N29	0.668570	0.893430	0.190330
C851	C85	0.790870	0.937730	0.343130
H571	H57	0.770770	0.957530	0.343030
C861	C86	0.849970	0.968830	0.342830
H581	H58	0.868770	0.008730	0.343630
C871	C87	0.676070	0.930930	0.122730
N301	N30	0.335230	0.226770	0.523670
C881	C88	0.457530	0.271070	0.676470
H591	H59	0.437430	0.290870	0.676370
C891	C89	0.516630	0.302170	0.676170
H601	H60	0.535430	0.342070	0.676970
C901	C90	0.342730	0.264270	0.456070
N311	N31	0.558200	0.998100	0.857000
C911	C91	0.480200	0.875800	0.009800
H611	H61	0.520100	0.895900	0.009700
C921	C92	0.452200	0.816700	0.009500
H621	H62	0.473300	0.797900	0.010300
C931	C93	0.588200	0.990600	0.789400
N321	N32	0.224870	0.331430	0.190330
C941	C94	0.146870	0.209130	0.343130
H631	H63	0.186770	0.229230	0.343030
C951	C95	0.118870	0.150030	0.342830
H641	H64	0.139970	0.131230	0.343630
C961	C96	0.254870	0.323930	0.122730
N331	N33	0.891530	0.664770	0.523670
C971	C97	0.813530	0.542470	0.676470
H651	H65	0.853430	0.562570	0.676370
C981	C98	0.785530	0.483370	0.676170
H661	H66	0.806630	0.464570	0.676970
C991	C99	0.921530	0.657270	0.456070
N341	N34	0.439900	0.441800	0.857000
C1001	C100	0.395600	0.519800	0.009800
H671	H67	0.375800	0.479900	0.009700
C1011	C101	0.364500	0.547800	0.009500
H681	H68	0.324600	0.526700	0.010300
C1021	C102	0.402400	0.411800	0.789400
N351	N35	0.106570	0.775130	0.190330
C1031	C103	0.062270	0.853130	0.343130
H691	H69	0.042470	0.813230	0.343030
C1041	C104	0.031170	0.881130	0.342830
H701	H70	0.991270	0.860030	0.343630
C1051	C105	0.069070	0.745130	0.122730
N361	N36	0.773230	0.108470	0.523670
C1061	C106	0.728930	0.186470	0.676470
H711	H71	0.709130	0.146570	0.676370
C1071	C107	0.697830	0.214470	0.676170
H721	H72	0.657930	0.193370	0.676970
C1081	C108	0.735730	0.078470	0.456070
Ag11	Ag1	0.333330	0.964820	0.666670
Ag21	Ag2	0.000000	0.298150	0.000000
Ag31	Ag3	0.035180	0.368520	0.666670
Ag41	Ag4	0.701850	0.701850	0.000000
Ag51	Ag5	0.631480	0.666670	0.666670
Ag61	Ag6	0.298150	0.000000	0.000000
Ag71	Ag7	0.964820	0.333330	0.333330
Ag81	Ag8	0.368520	0.035180	0.333330
Ag91	Ag9	0.666670	0.631480	0.333330
Ag101	Ag10	0.666670	0.035180	0.333330
Ag111	Ag11	0.964820	0.631480	0.333330
Ag121	Ag12	0.368520	0.333330	0.333330
Ag131	Ag13	0.035180	0.666670	0.666670
Ag141	Ag14	0.701850	0.000000	0.000000
Ag151	Ag15	0.631480	0.964820	0.666670
Ag161	Ag16	0.298150	0.298150	0.000000
Ag171	Ag17	0.333330	0.368520	0.666670
Ag181	Ag18	0.000000	0.701850	0.000000
Fe11	Fe1	0.500000	0.000000	0.000000
Fe21	Fe2	0.166670	0.333330	0.333330
Fe31	Fe3	0.833330	0.666670	0.666670
Fe41	Fe4	0.000000	0.500000	0.000000
Fe51	Fe5	0.666670	0.833330	0.333330
Fe61	Fe6	0.333330	0.166670	0.666670
Fe71	Fe7	0.500000	0.500000	0.000000
Fe81	Fe8	0.166670	0.833330	0.333330
Fe91	Fe9	0.833330	0.166670	0.666670
N371	N37	0.452650	0.905300	0.010200
C1091	C109	0.392650	0.785300	0.007900
C1101	C110	0.361550	0.723100	0.007600
N381	N38	0.119320	0.238630	0.343530
C1111	C111	0.059320	0.118630	0.341230
C1121	C112	0.028220	0.056430	0.340930
N391	N39	0.785980	0.571970	0.676870
C1131	C113	0.725980	0.451970	0.674570
C1141	C114	0.694880	0.389770	0.674270
N401	N40	0.094700	0.547350	0.010200
C1151	C115	0.214700	0.607350	0.007900
C1161	C116	0.276900	0.638450	0.007600
N411	N41	0.761370	0.880680	0.343530
C1171	C117	0.881370	0.940680	0.341230
C1181	C118	0.943570	0.971780	0.340930
N421	N42	0.428030	0.214020	0.676870
C1191	C119	0.548030	0.274020	0.674570
C1201	C120	0.610230	0.305120	0.674270
N431	N43	0.452650	0.547350	0.010200
C1211	C121	0.392650	0.607350	0.007900
C1221	C122	0.361550	0.638450	0.007600
N441	N44	0.119320	0.880680	0.343530
C1231	C123	0.059320	0.940680	0.341230
C1241	C124	0.028220	0.971780	0.340930
N451	N45	0.785980	0.214020	0.676870
C1251	C125	0.725980	0.274020	0.674570
C1261	C126	0.694880	0.305120	0.674270
N461	N46	0.905300	0.452650	0.989800
C1271	C127	0.785300	0.392650	0.992100
C1281	C128	0.723100	0.361550	0.992400
N471	N47	0.571970	0.785980	0.323130
C1291	C129	0.451970	0.725980	0.325430
C1301	C130	0.389770	0.694880	0.325730
N481	N48	0.238630	0.119320	0.656470
C1311	C131	0.118630	0.059320	0.658770
C1321	C132	0.056430	0.028220	0.659070
N491	N49	0.547350	0.094700	0.989800
C1331	C133	0.607350	0.214700	0.992100
C1341	C134	0.638450	0.276900	0.992400
N501	N50	0.214020	0.428030	0.323130
C1351	C135	0.274020	0.548030	0.325430
C1361	C136	0.305120	0.610230	0.325730
N511	N51	0.880680	0.761370	0.656470
C1371	C137	0.940680	0.881370	0.658770
C1381	C138	0.971780	0.943570	0.659070
N521	N52	0.547350	0.452650	0.989800
C1391	C139	0.607350	0.392650	0.992100
C1401	C140	0.638450	0.361550	0.992400
N531	N53	0.214020	0.785980	0.323130
C1411	C141	0.274020	0.725980	0.325430
C1421	C142	0.305120	0.694880	0.325730
N541	N54	0.880680	0.119320	0.656470
C1431	C143	0.940680	0.059320	0.658770
C1441	C144	0.971780	0.028220	0.659070
N551	N55	0.304020	0.695980	0.005800
N561	N56	0.970690	0.029310	0.339130
N571	N57	0.637350	0.362650	0.672470
N581	N58	0.304020	0.608040	0.005800
N591	N59	0.970690	0.941370	0.339130
N601	N60	0.637350	0.274710	0.672470
N611	N61	0.391960	0.695980	0.005800
N621	N62	0.058630	0.029310	0.339130
N631	N63	0.725290	0.362650	0.672470
N641	N64	0.695980	0.304020	0.994200
N651	N65	0.362650	0.637350	0.327530
N661	N66	0.029310	0.970690	0.660870
N671	N67	0.608040	0.304020	0.994200
N681	N68	0.274710	0.637350	0.327530
N691	N69	0.941370	0.970690	0.660870
N701	N70	0.695980	0.391960	0.994200
N711	N71	0.362650	0.725290	0.327530
N721	N72	0.029310	0.058630	0.660870
