data_YOYVOZ_clean_PM
_symmetry_space_group_name_H-M	'P1'
_cell_length_a	26.401300
_cell_length_b	26.401300
_cell_length_c	9.666200
_cell_angle_alpha	90.000000
_cell_angle_beta	90.000000
_cell_angle_gamma	120.000000
_symmetry_Int_Tables_number 1

loop_
_symmetry_equiv_pos_as_xyz
'x,y,z'

loop_
_atom_site_label
_atom_site_type_symbol
_atom_site_fract_x
_atom_site_fract_y
_atom_site_fract_z
C11	C1	0.322900	0.251200	0.884200
N11	N1	0.331300	0.221600	0.813500
C21	C2	0.453500	0.184100	0.676000
H11	H1	0.433200	0.143500	0.680600
C31	C3	0.513100	0.211800	0.672000
H21	H2	0.532300	0.190400	0.668300
C41	C4	0.989570	0.584530	0.217530
N21	N2	0.997970	0.554930	0.146830
C51	C5	0.120170	0.517430	0.009330
H31	H3	0.099870	0.476830	0.013930
C61	C6	0.179770	0.545130	0.005330
H41	H4	0.198970	0.523730	0.001630
C71	C7	0.656230	0.917870	0.550870
N31	N3	0.664630	0.888270	0.480170
C81	C8	0.786830	0.850770	0.342670
H51	H5	0.766530	0.810170	0.347270
C91	C9	0.846430	0.878470	0.338670
H61	H6	0.865630	0.857070	0.334970
C101	C10	0.748800	0.071700	0.884200
N41	N4	0.778400	0.109700	0.813500
C111	C11	0.815900	0.269400	0.676000
H71	H7	0.856500	0.289700	0.680600
C121	C12	0.788200	0.301300	0.672000
H81	H8	0.809600	0.341900	0.668300
C131	C13	0.415470	0.405030	0.217530
N51	N5	0.445070	0.443030	0.146830
C141	C14	0.482570	0.602730	0.009330
H91	H9	0.523170	0.623030	0.013930
C151	C15	0.454870	0.634630	0.005330
H101	H10	0.476270	0.675230	0.001630
C161	C16	0.082130	0.738370	0.550870
N61	N6	0.111730	0.776370	0.480170
C171	C17	0.149230	0.936070	0.342670
H111	H11	0.189830	0.956370	0.347270
C181	C18	0.121530	0.967970	0.338670
H121	H12	0.142930	0.008570	0.334970
C191	C19	0.928300	0.677100	0.884200
N71	N7	0.890300	0.668700	0.813500
C201	C20	0.730600	0.546500	0.676000
H131	H13	0.710300	0.566800	0.680600
C211	C21	0.698700	0.486900	0.672000
H141	H14	0.658100	0.467700	0.668300
C221	C22	0.594970	0.010430	0.217530
N81	N8	0.556970	0.002030	0.146830
C231	C23	0.397270	0.879830	0.009330
H151	H15	0.376970	0.900130	0.013930
C241	C24	0.365370	0.820230	0.005330
H161	H16	0.324770	0.801030	0.001630
C251	C25	0.261630	0.343770	0.550870
N91	N9	0.223630	0.335370	0.480170
C261	C26	0.063930	0.213170	0.342670
H171	H17	0.043630	0.233470	0.347270
C271	C27	0.032030	0.153570	0.338670
H181	H18	0.991430	0.134370	0.334970
C281	C28	0.251200	0.322900	0.115800
N101	N10	0.221600	0.331300	0.186500
C291	C29	0.184100	0.453500	0.324000
H191	H19	0.143500	0.433200	0.319400
C301	C30	0.211800	0.513100	0.328000
H201	H20	0.190400	0.532300	0.331700
C311	C31	0.917870	0.656230	0.449130
N111	N11	0.888270	0.664630	0.519830
C321	C32	0.850770	0.786830	0.657330
H211	H21	0.810170	0.766530	0.652730
C331	C33	0.878470	0.846430	0.661330
H221	H22	0.857070	0.865630	0.665030
C341	C34	0.584530	0.989570	0.782470
N121	N12	0.554930	0.997970	0.853170
C351	C35	0.517430	0.120170	0.990670
H231	H23	0.476830	0.099870	0.986070
C361	C36	0.545130	0.179770	0.994670
H241	H24	0.523730	0.198970	0.998370
C371	C37	0.071700	0.748800	0.115800
N131	N13	0.109700	0.778400	0.186500
C381	C38	0.269400	0.815900	0.324000
H251	H25	0.289700	0.856500	0.319400
C391	C39	0.301300	0.788200	0.328000
H261	H26	0.341900	0.809600	0.331700
C401	C40	0.738370	0.082130	0.449130
N141	N14	0.776370	0.111730	0.519830
C411	C41	0.936070	0.149230	0.657330
H271	H27	0.956370	0.189830	0.652730
C421	C42	0.967970	0.121530	0.661330
H281	H28	0.008570	0.142930	0.665030
C431	C43	0.405030	0.415470	0.782470
N151	N15	0.443030	0.445070	0.853170
C441	C44	0.602730	0.482570	0.990670
H291	H29	0.623030	0.523170	0.986070
C451	C45	0.634630	0.454870	0.994670
H301	H30	0.675230	0.476270	0.998370
C461	C46	0.677100	0.928300	0.115800
N161	N16	0.668700	0.890300	0.186500
C471	C47	0.546500	0.730600	0.324000
H311	H31	0.566800	0.710300	0.319400
C481	C48	0.486900	0.698700	0.328000
H321	H32	0.467700	0.658100	0.331700
C491	C49	0.343770	0.261630	0.449130
N171	N17	0.335370	0.223630	0.519830
C501	C50	0.213170	0.063930	0.657330
H331	H33	0.233470	0.043630	0.652730
C511	C51	0.153570	0.032030	0.661330
H341	H34	0.134370	0.991430	0.665030
C521	C52	0.010430	0.594970	0.782470
N181	N18	0.002030	0.556970	0.853170
C531	C53	0.879830	0.397270	0.990670
H351	H35	0.900130	0.376970	0.986070
C541	C54	0.820230	0.365370	0.994670
H361	H36	0.801030	0.324770	0.998370
C551	C55	0.677100	0.748800	0.115800
N191	N19	0.668700	0.778400	0.186500
C561	C56	0.546500	0.815900	0.324000
H371	H37	0.566800	0.856500	0.319400
C571	C57	0.486900	0.788200	0.328000
H381	H38	0.467700	0.809600	0.331700
C581	C58	0.343770	0.082130	0.449130
N201	N20	0.335370	0.111730	0.519830
C591	C59	0.213170	0.149230	0.657330
H391	H39	0.233470	0.189830	0.652730
C601	C60	0.153570	0.121530	0.661330
H401	H40	0.134370	0.142930	0.665030
C611	C61	0.010430	0.415470	0.782470
N211	N21	0.002030	0.445070	0.853170
C621	C62	0.879830	0.482570	0.990670
H411	H41	0.900130	0.523170	0.986070
C631	C63	0.820230	0.454870	0.994670
H421	H42	0.801030	0.476270	0.998370
C641	C64	0.251200	0.928300	0.115800
N221	N22	0.221600	0.890300	0.186500
C651	C65	0.184100	0.730600	0.324000
H431	H43	0.143500	0.710300	0.319400
C661	C66	0.211800	0.698700	0.328000
H441	H44	0.190400	0.658100	0.331700
C671	C67	0.917870	0.261630	0.449130
N231	N23	0.888270	0.223630	0.519830
C681	C68	0.850770	0.063930	0.657330
H451	H45	0.810170	0.043630	0.652730
C691	C69	0.878470	0.032030	0.661330
H461	H46	0.857070	0.991430	0.665030
C701	C70	0.584530	0.594970	0.782470
N241	N24	0.554930	0.556970	0.853170
C711	C71	0.517430	0.397270	0.990670
H471	H47	0.476830	0.376970	0.986070
C721	C72	0.545130	0.365370	0.994670
H481	H48	0.523730	0.324770	0.998370
C731	C73	0.071700	0.322900	0.115800
N251	N25	0.109700	0.331300	0.186500
C741	C74	0.269400	0.453500	0.324000
H491	H49	0.289700	0.433200	0.319400
C751	C75	0.301300	0.513100	0.328000
H501	H50	0.341900	0.532300	0.331700
C761	C76	0.738370	0.656230	0.449130
N261	N26	0.776370	0.664630	0.519830
C771	C77	0.936070	0.786830	0.657330
H511	H51	0.956370	0.766530	0.652730
C781	C78	0.967970	0.846430	0.661330
H521	H52	0.008570	0.865630	0.665030
C791	C79	0.405030	0.989570	0.782470
N271	N27	0.443030	0.997970	0.853170
C801	C80	0.602730	0.120170	0.990670
H531	H53	0.623030	0.099870	0.986070
C811	C81	0.634630	0.179770	0.994670
H541	H54	0.675230	0.198970	0.998370
C821	C82	0.748800	0.677100	0.884200
N281	N28	0.778400	0.668700	0.813500
C831	C83	0.815900	0.546500	0.676000
H551	H55	0.856500	0.566800	0.680600
C841	C84	0.788200	0.486900	0.672000
H561	H56	0.809600	0.467700	0.668300
C851	C85	0.415470	0.010430	0.217530
N291	N29	0.445070	0.002030	0.146830
C861	C86	0.482570	0.879830	0.009330
H571	H57	0.523170	0.900130	0.013930
C871	C87	0.454870	0.820230	0.005330
H581	H58	0.476270	0.801030	0.001630
C881	C88	0.082130	0.343770	0.550870
N301	N30	0.111730	0.335370	0.480170
C891	C89	0.149230	0.213170	0.342670
H591	H59	0.189830	0.233470	0.347270
C901	C90	0.121530	0.153570	0.338670
H601	H60	0.142930	0.134370	0.334970
C911	C91	0.928300	0.251200	0.884200
N311	N31	0.890300	0.221600	0.813500
C921	C92	0.730600	0.184100	0.676000
H611	H61	0.710300	0.143500	0.680600
C931	C93	0.698700	0.211800	0.672000
H621	H62	0.658100	0.190400	0.668300
C941	C94	0.594970	0.584530	0.217530
N321	N32	0.556970	0.554930	0.146830
C951	C95	0.397270	0.517430	0.009330
H631	H63	0.376970	0.476830	0.013930
C961	C96	0.365370	0.545130	0.005330
H641	H64	0.324770	0.523730	0.001630
C971	C97	0.261630	0.917870	0.550870
N331	N33	0.223630	0.888270	0.480170
C981	C98	0.063930	0.850770	0.342670
H651	H65	0.043630	0.810170	0.347270
C991	C99	0.032030	0.878470	0.338670
H661	H66	0.991430	0.857070	0.334970
C1001	C100	0.322900	0.071700	0.884200
N341	N34	0.331300	0.109700	0.813500
C1011	C101	0.453500	0.269400	0.676000
H671	H67	0.433200	0.289700	0.680600
C1021	C102	0.513100	0.301300	0.672000
H681	H68	0.532300	0.341900	0.668300
C1031	C103	0.989570	0.405030	0.217530
N351	N35	0.997970	0.443030	0.146830
C1041	C104	0.120170	0.602730	0.009330
H691	H69	0.099870	0.623030	0.013930
C1051	C105	0.179770	0.634630	0.005330
H701	H70	0.198970	0.675230	0.001630
C1061	C106	0.656230	0.738370	0.550870
N361	N36	0.664630	0.776370	0.480170
C1071	C107	0.786830	0.936070	0.342670
H711	H71	0.766530	0.956370	0.347270
C1081	C108	0.846430	0.967970	0.338670
H721	H72	0.865630	0.008570	0.334970
Au11	Au1	0.292280	0.292280	0.000000
Au21	Au2	0.958950	0.625610	0.333330
Au31	Au3	0.625610	0.958950	0.666670
Au41	Au4	0.707720	0.000000	0.000000
Au51	Au5	0.374390	0.333330	0.333330
Au61	Au6	0.041050	0.666670	0.666670
Au71	Au7	0.000000	0.707720	0.000000
Au81	Au8	0.666670	0.041050	0.333330
Au91	Au9	0.333330	0.374390	0.666670
Au101	Au10	0.707720	0.707720	0.000000
Au111	Au11	0.374390	0.041050	0.333330
Au121	Au12	0.041050	0.374390	0.666670
Au131	Au13	0.292280	0.000000	0.000000
Au141	Au14	0.958950	0.333330	0.333330
Au151	Au15	0.625610	0.666670	0.666670
Au161	Au16	0.000000	0.292280	0.000000
Au171	Au17	0.666670	0.625610	0.333330
Au181	Au18	0.333330	0.958950	0.666670
Fe11	Fe1	0.333330	0.166670	0.666670
Fe21	Fe2	0.000000	0.500000	0.000000
Fe31	Fe3	0.833330	0.166670	0.666670
Fe41	Fe4	0.500000	0.500000	0.000000
Fe51	Fe5	0.833330	0.666670	0.666670
Fe61	Fe6	0.500000	0.000000	0.000000
Fe71	Fe7	0.166670	0.333330	0.333330
Fe81	Fe8	0.166670	0.833330	0.333330
Fe91	Fe9	0.666670	0.833330	0.333330
N371	N37	0.422400	0.211200	0.673000
C1091	C109	0.544400	0.272200	0.674000
C1101	C110	0.608700	0.304350	0.673000
N381	N38	0.089070	0.544530	0.006330
C1111	C111	0.211070	0.605530	0.007330
C1121	C112	0.275370	0.637680	0.006330
N391	N39	0.755730	0.877870	0.339670
C1131	C113	0.877730	0.938870	0.340670
C1141	C114	0.942030	0.971020	0.339670
N401	N40	0.788800	0.211200	0.673000
C1151	C115	0.727800	0.272200	0.674000
C1161	C116	0.695650	0.304350	0.673000
N411	N41	0.455470	0.544530	0.006330
C1171	C117	0.394470	0.605530	0.007330
C1181	C118	0.362320	0.637680	0.006330
N421	N42	0.122130	0.877870	0.339670
C1191	C119	0.061130	0.938870	0.340670
C1201	C120	0.028980	0.971020	0.339670
N431	N43	0.788800	0.577600	0.673000
C1211	C121	0.727800	0.455600	0.674000
C1221	C122	0.695650	0.391300	0.673000
N441	N44	0.455470	0.910930	0.006330
C1231	C123	0.394470	0.788930	0.007330
C1241	C124	0.362320	0.724630	0.006330
N451	N45	0.122130	0.244270	0.339670
C1251	C125	0.061130	0.122270	0.340670
C1261	C126	0.028980	0.057970	0.339670
N461	N46	0.211200	0.422400	0.327000
C1271	C127	0.272200	0.544400	0.326000
C1281	C128	0.304350	0.608700	0.327000
N471	N47	0.877870	0.755730	0.660330
C1291	C129	0.938870	0.877730	0.659330
C1301	C130	0.971020	0.942030	0.660330
N481	N48	0.544530	0.089070	0.993670
C1311	C131	0.605530	0.211070	0.992670
C1321	C132	0.637680	0.275370	0.993670
N491	N49	0.211200	0.788800	0.327000
C1331	C133	0.272200	0.727800	0.326000
C1341	C134	0.304350	0.695650	0.327000
N501	N50	0.877870	0.122130	0.660330
C1351	C135	0.938870	0.061130	0.659330
C1361	C136	0.971020	0.028980	0.660330
N511	N51	0.544530	0.455470	0.993670
C1371	C137	0.605530	0.394470	0.992670
C1381	C138	0.637680	0.362320	0.993670
N521	N52	0.577600	0.788800	0.327000
C1391	C139	0.455600	0.727800	0.326000
C1401	C140	0.391300	0.695650	0.327000
N531	N53	0.244270	0.122130	0.660330
C1411	C141	0.122270	0.061130	0.659330
C1421	C142	0.057970	0.028980	0.660330
N541	N54	0.910930	0.455470	0.993670
C1431	C143	0.788930	0.394470	0.992670
C1441	C144	0.724630	0.362320	0.993670
N551	N55	0.636400	0.363600	0.670000
N561	N56	0.303070	0.696930	0.003330
N571	N57	0.969730	0.030270	0.336670
N581	N58	0.636400	0.272800	0.670000
N591	N59	0.303070	0.606130	0.003330
N601	N60	0.969730	0.939470	0.336670
N611	N61	0.727200	0.363600	0.670000
N621	N62	0.393870	0.696930	0.003330
N631	N63	0.060530	0.030270	0.336670
N641	N64	0.363600	0.636400	0.330000
N651	N65	0.030270	0.969730	0.663330
N661	N66	0.696930	0.303070	0.996670
N671	N67	0.272800	0.636400	0.330000
N681	N68	0.939470	0.969730	0.663330
N691	N69	0.606130	0.303070	0.996670
N701	N70	0.363600	0.727200	0.330000
N711	N71	0.030270	0.060530	0.663330
N721	N72	0.696930	0.393870	0.996670
