data_YOYZET_clean_PM
_symmetry_space_group_name_H-M	'P1'
_cell_length_a	26.604000
_cell_length_b	18.113000
_cell_length_c	18.925000
_cell_angle_alpha	90.000000
_cell_angle_beta	118.240000
_cell_angle_gamma	90.000000
_symmetry_Int_Tables_number 1

loop_
_symmetry_equiv_pos_as_xyz
'x,y,z'

loop_
_atom_site_label
_atom_site_type_symbol
_atom_site_fract_x
_atom_site_fract_y
_atom_site_fract_z
Co11	Co1	0.996480	0.080900	0.778930
B11	B1	0.027600	0.951300	0.689300
H11	H1	0.038800	0.912600	0.661700
N11	N1	0.055400	0.993100	0.834900
N21	N2	0.061300	0.942800	0.781900
C11	C1	0.090900	0.965200	0.903900
H21	H2	0.099800	0.991100	0.952100
C21	C2	0.098400	0.888400	0.826800
H31	H3	0.111000	0.848800	0.806300
N31	N3	0.114400	0.900500	0.906400
N41	N4	0.942200	0.994200	0.698800
N51	N5	0.966900	0.946500	0.666100
C31	C3	0.889400	0.973700	0.663700
H41	H4	0.861600	0.000000	0.671600
C41	C4	0.925500	0.900700	0.617000
H51	H5	0.931100	0.863100	0.586500
N61	N6	0.874800	0.913500	0.615300
N71	N7	0.029900	0.088300	0.700500
N81	N8	0.040400	0.028500	0.670100
C51	C5	0.042700	0.145200	0.664700
H61	H6	0.038000	0.195400	0.675000
C61	C6	0.056800	0.052300	0.613400
H71	H7	0.063400	0.020400	0.578700
N91	N9	0.062000	0.125600	0.614600
B21	B2	0.961300	0.213000	0.857300
H81	H8	0.949100	0.254000	0.881100
N101	N10	0.936200	0.165400	0.718700
N111	N11	0.930000	0.218500	0.765700
C71	C7	0.905100	0.190400	0.643900
H91	H9	0.899400	0.163300	0.597700
C81	C8	0.897600	0.274000	0.717600
H101	H10	0.887300	0.317500	0.735600
N121	N12	0.882200	0.258100	0.640500
N131	N13	0.050700	0.167800	0.856500
N141	N14	0.025400	0.218500	0.885200
C91	C9	0.101600	0.193700	0.883100
H111	H11	0.129900	0.166700	0.877000
C101	C10	0.064200	0.272500	0.922800
H121	H12	0.058300	0.314200	0.948200
N151	N15	0.113300	0.258200	0.918800
N161	N16	0.961700	0.077200	0.856300
N171	N17	0.948600	0.138700	0.883000
C111	C11	0.946100	0.021900	0.888200
H131	H13	0.950200	0.971100	0.879400
C121	C12	0.924400	0.119900	0.930800
H141	H14	0.910700	0.153600	0.956200
N181	N18	0.923500	0.047200	0.935300
Cu11	Cu1	0.196950	0.850020	0.975820
Cu21	Cu2	0.305830	0.815470	0.033450
O11	O1	0.217100	0.892300	0.893800
O21	O2	0.309500	0.877000	0.951200
C131	C13	0.265700	0.899300	0.898100
C141	C14	0.263100	0.941600	0.827400
C151	C15	0.216400	0.998000	0.791900
C161	C16	0.315700	0.978500	0.853300
C171	C17	0.253900	0.894100	0.755800
C181	C18	0.271900	0.824600	0.767700
O31	O3	0.230800	0.936000	0.045900
O41	O4	0.320500	0.904100	0.099400
C191	C19	0.281900	0.948100	0.089800
C201	C20	0.294900	0.018000	0.136900
H151	H15	0.332100	0.011600	0.186800
C211	C21	0.249500	0.045200	0.161500
H161	H16	0.211700	0.023600	0.125700
H171	H17	0.260700	0.030500	0.217400
C221	C22	0.300500	0.081900	0.090300
C231	C23	0.252600	0.081500	0.000900
H181	H18	0.215300	0.077100	0.999000
H191	H19	0.258400	0.039500	0.972900
H201	H20	0.254200	0.127500	0.974900
C241	C24	0.361000	0.083800	0.092500
H211	H21	0.363500	0.043100	0.060100
H221	H22	0.391300	0.078500	0.148000
H231	H23	0.365600	0.130900	0.070800
O51	O5	0.801600	0.797600	0.932700
O61	O6	0.710500	0.763400	0.889200
C251	C25	0.755300	0.765100	0.884500
C261	C26	0.759100	0.725800	0.813600
C271	C27	0.817100	0.696600	0.831900
H241	H24	0.824000	0.646500	0.855500
H251	H25	0.848200	0.730100	0.867400
C281	C28	0.732700	0.778200	0.736100
C291	C29	0.751400	0.851400	0.749400
C301	C30	0.668500	0.787400	0.696900
O71	O7	0.322800	0.257500	0.084900
O81	O8	0.230200	0.238300	0.046600
C311	C31	0.282900	0.224200	0.087400
C321	C32	0.300500	0.152400	0.138700
C331	C33	0.348900	0.167800	0.214300
H261	H26	0.379000	0.190300	0.205600
H271	H27	0.363100	0.121700	0.244500
H281	H28	0.337900	0.201800	0.244800
C341	C34	0.247500	0.125600	0.154200
H291	H29	0.251000	0.148400	0.203900
H301	H30	0.210600	0.141100	0.108800
Cu31	Cu3	0.797170	0.862620	0.538500
Cu41	Cu4	0.691680	0.816900	0.449800
O91	O9	0.760100	0.940800	0.561600
O101	O10	0.668200	0.910900	0.476100
C351	C35	0.706300	0.955300	0.526900
C361	C36	0.683100	0.026700	0.550300
C371	C37	0.731900	0.058700	0.633400
H311	H31	0.731900	0.033100	0.679600
H321	H32	0.770000	0.053700	0.636900
C381	C38	0.627900	0.010100	0.546700
H331	H33	0.597700	0.011300	0.490800
H341	H34	0.619700	0.047100	0.577800
H351	H35	0.629300	0.961000	0.569200
C391	C39	0.678600	0.091200	0.495600
C401	C40	0.728700	0.093000	0.474700
H361	H36	0.763000	0.072200	0.519400
H371	H37	0.736100	0.144200	0.465500
H381	H38	0.718400	0.063900	0.426200
C411	C41	0.624700	0.099300	0.425300
H391	H39	0.622400	0.148300	0.402000
H401	H40	0.594000	0.094000	0.439600
H411	H41	0.620700	0.061300	0.386200
O111	O11	0.789000	0.799900	0.619200
O121	O12	0.696300	0.773700	0.545500
C421	C42	0.742500	0.769700	0.608600
C431	C43	0.745500	0.728500	0.681000
C441	C44	0.808100	0.696300	0.742000
H421	H42	0.811800	0.645200	0.726300
H431	H43	0.837900	0.727000	0.739100
C451	C45	0.701900	0.673900	0.658300
H441	H44	0.687600	0.673100	0.697500
H451	H45	0.717600	0.625400	0.656700
H461	H46	0.670500	0.685800	0.605100
O131	O13	0.671100	0.276000	0.487800
O141	O14	0.759300	0.234300	0.558000
C461	C46	0.705400	0.228000	0.529400
C471	C47	0.684700	0.159100	0.548000
H471	H47	0.645400	0.170100	0.539500
C481	C48	0.716800	0.132500	0.630900
H481	H48	0.751700	0.162600	0.660000
H491	H49	0.693200	0.138400	0.658200
O151	O15	0.215000	0.912300	0.562400
O161	O16	0.303800	0.868300	0.637500
C491	C49	0.259300	0.905300	0.626100
C501	C50	0.265400	0.944500	0.700800
H501	H50	0.236900	0.985600	0.683300
C511	C51	0.327500	0.979700	0.748900
Co21	Co2	0.496480	0.580900	0.778930
B31	B3	0.527600	0.451300	0.689300
H511	H51	0.538800	0.412600	0.661700
N191	N19	0.555400	0.493100	0.834900
N201	N20	0.561300	0.442800	0.781900
C521	C52	0.590900	0.465200	0.903900
H521	H52	0.599800	0.491100	0.952100
C531	C53	0.598400	0.388400	0.826800
H531	H53	0.611000	0.348800	0.806300
N211	N21	0.614400	0.400500	0.906400
N221	N22	0.442200	0.494200	0.698800
N231	N23	0.466900	0.446500	0.666100
C541	C54	0.389400	0.473700	0.663700
H541	H54	0.361600	0.500000	0.671600
C551	C55	0.425500	0.400700	0.617000
H551	H55	0.431100	0.363100	0.586500
N241	N24	0.374800	0.413500	0.615300
N251	N25	0.529900	0.588300	0.700500
N261	N26	0.540400	0.528500	0.670100
C561	C56	0.542700	0.645200	0.664700
H561	H56	0.538000	0.695400	0.675000
C571	C57	0.556800	0.552300	0.613400
H571	H57	0.563400	0.520400	0.578700
N271	N27	0.562000	0.625600	0.614600
B41	B4	0.461300	0.713000	0.857300
H581	H58	0.449100	0.754000	0.881100
N281	N28	0.436200	0.665400	0.718700
N291	N29	0.430000	0.718500	0.765700
C581	C58	0.405100	0.690400	0.643900
H591	H59	0.399400	0.663300	0.597700
C591	C59	0.397600	0.774000	0.717600
H601	H60	0.387300	0.817500	0.735600
N301	N30	0.382200	0.758100	0.640500
N311	N31	0.550700	0.667800	0.856500
N321	N32	0.525400	0.718500	0.885200
C601	C60	0.601600	0.693700	0.883100
H611	H61	0.629900	0.666700	0.877000
C611	C61	0.564200	0.772500	0.922800
H621	H62	0.558300	0.814200	0.948200
N331	N33	0.613300	0.758200	0.918800
N341	N34	0.461700	0.577200	0.856300
N351	N35	0.448600	0.638700	0.883000
C621	C62	0.446100	0.521900	0.888200
H631	H63	0.450200	0.471100	0.879400
C631	C63	0.424400	0.619900	0.930800
H641	H64	0.410700	0.653600	0.956200
N361	N36	0.423500	0.547200	0.935300
Cu51	Cu5	0.696950	0.350020	0.975820
Cu61	Cu6	0.805830	0.315470	0.033450
O171	O17	0.717100	0.392300	0.893800
O181	O18	0.809500	0.377000	0.951200
C641	C64	0.765700	0.399300	0.898100
C651	C65	0.763100	0.441600	0.827400
C661	C66	0.716400	0.498000	0.791900
C671	C67	0.815700	0.478500	0.853300
C681	C68	0.753900	0.394100	0.755800
C691	C69	0.771900	0.324600	0.767700
O191	O19	0.730800	0.436000	0.045900
O201	O20	0.820500	0.404100	0.099400
C701	C70	0.781900	0.448100	0.089800
C711	C71	0.794900	0.518000	0.136900
H651	H65	0.832100	0.511600	0.186800
C721	C72	0.749500	0.545200	0.161500
H661	H66	0.711700	0.523600	0.125700
H671	H67	0.760700	0.530500	0.217400
C731	C73	0.800500	0.581900	0.090300
C741	C74	0.752600	0.581500	0.000900
H681	H68	0.715300	0.577100	0.999000
H691	H69	0.758400	0.539500	0.972900
H701	H70	0.754200	0.627500	0.974900
C751	C75	0.861000	0.583800	0.092500
H711	H71	0.863500	0.543100	0.060100
H721	H72	0.891300	0.578500	0.148000
H731	H73	0.865600	0.630900	0.070800
O211	O21	0.301600	0.297600	0.932700
O221	O22	0.210500	0.263400	0.889200
C761	C76	0.255300	0.265100	0.884500
C771	C77	0.259100	0.225800	0.813600
C781	C78	0.317100	0.196600	0.831900
H741	H74	0.324000	0.146500	0.855500
H751	H75	0.348200	0.230100	0.867400
C791	C79	0.232700	0.278200	0.736100
C801	C80	0.251400	0.351400	0.749400
C811	C81	0.168500	0.287400	0.696900
O231	O23	0.822800	0.757500	0.084900
O241	O24	0.730200	0.738300	0.046600
C821	C82	0.782900	0.724200	0.087400
C831	C83	0.800500	0.652400	0.138700
C841	C84	0.848900	0.667800	0.214300
H761	H76	0.879000	0.690300	0.205600
H771	H77	0.863100	0.621700	0.244500
H781	H78	0.837900	0.701800	0.244800
C851	C85	0.747500	0.625600	0.154200
H791	H79	0.751000	0.648400	0.203900
H801	H80	0.710600	0.641100	0.108800
Cu71	Cu7	0.297170	0.362620	0.538500
Cu81	Cu8	0.191680	0.316900	0.449800
O251	O25	0.260100	0.440800	0.561600
O261	O26	0.168200	0.410900	0.476100
C861	C86	0.206300	0.455300	0.526900
C871	C87	0.183100	0.526700	0.550300
C881	C88	0.231900	0.558700	0.633400
H811	H81	0.231900	0.533100	0.679600
H821	H82	0.270000	0.553700	0.636900
C891	C89	0.127900	0.510100	0.546700
H831	H83	0.097700	0.511300	0.490800
H841	H84	0.119700	0.547100	0.577800
H851	H85	0.129300	0.461000	0.569200
C901	C90	0.178600	0.591200	0.495600
C911	C91	0.228700	0.593000	0.474700
H861	H86	0.263000	0.572200	0.519400
H871	H87	0.236100	0.644200	0.465500
H881	H88	0.218400	0.563900	0.426200
C921	C92	0.124700	0.599300	0.425300
H891	H89	0.122400	0.648300	0.402000
H901	H90	0.094000	0.594000	0.439600
H911	H91	0.120700	0.561300	0.386200
O271	O27	0.289000	0.299900	0.619200
O281	O28	0.196300	0.273700	0.545500
C931	C93	0.242500	0.269700	0.608600
C941	C94	0.245500	0.228500	0.681000
C951	C95	0.308100	0.196300	0.742000
H921	H92	0.311800	0.145200	0.726300
H931	H93	0.337900	0.227000	0.739100
C961	C96	0.201900	0.173900	0.658300
H941	H94	0.187600	0.173100	0.697500
H951	H95	0.217600	0.125400	0.656700
H961	H96	0.170500	0.185800	0.605100
O291	O29	0.171100	0.776000	0.487800
O301	O30	0.259300	0.734300	0.558000
C971	C97	0.205400	0.728000	0.529400
C981	C98	0.184700	0.659100	0.548000
H971	H97	0.145400	0.670100	0.539500
C991	C99	0.216800	0.632500	0.630900
H981	H98	0.251700	0.662600	0.660000
H991	H99	0.193200	0.638400	0.658200
O311	O31	0.715000	0.412300	0.562400
O321	O32	0.803800	0.368300	0.637500
C1001	C100	0.759300	0.405300	0.626100
C1011	C101	0.765400	0.444500	0.700800
H1001	H100	0.736900	0.485600	0.683300
C1021	C102	0.827500	0.479700	0.748900
Co31	Co3	0.003520	0.080900	0.221070
B51	B5	0.972400	0.951300	0.310700
H1011	H101	0.961200	0.912600	0.338300
N371	N37	0.944600	0.993100	0.165100
N381	N38	0.938700	0.942800	0.218100
C1031	C103	0.909100	0.965200	0.096100
H1021	H102	0.900200	0.991100	0.047900
C1041	C104	0.901600	0.888400	0.173200
H1031	H103	0.889000	0.848800	0.193700
N391	N39	0.885600	0.900500	0.093600
N401	N40	0.057800	0.994200	0.301200
N411	N41	0.033100	0.946500	0.333900
C1051	C105	0.110600	0.973700	0.336300
H1041	H104	0.138400	0.000000	0.328400
C1061	C106	0.074500	0.900700	0.383000
H1051	H105	0.068900	0.863100	0.413500
N421	N42	0.125200	0.913500	0.384700
N431	N43	0.970100	0.088300	0.299500
N441	N44	0.959600	0.028500	0.329900
C1071	C107	0.957300	0.145200	0.335300
H1061	H106	0.962000	0.195400	0.325000
C1081	C108	0.943200	0.052300	0.386600
H1071	H107	0.936600	0.020400	0.421300
N451	N45	0.938000	0.125600	0.385400
B61	B6	0.038700	0.213000	0.142700
H1081	H108	0.050900	0.254000	0.118900
N461	N46	0.063800	0.165400	0.281300
N471	N47	0.070000	0.218500	0.234300
C1091	C109	0.094900	0.190400	0.356100
H1091	H109	0.100600	0.163300	0.402300
C1101	C110	0.102400	0.274000	0.282400
H1101	H110	0.112700	0.317500	0.264400
N481	N48	0.117800	0.258100	0.359500
N491	N49	0.949300	0.167800	0.143500
N501	N50	0.974600	0.218500	0.114800
C1111	C111	0.898400	0.193700	0.116900
H1111	H111	0.870100	0.166700	0.123000
C1121	C112	0.935800	0.272500	0.077200
H1121	H112	0.941700	0.314200	0.051800
N511	N51	0.886700	0.258200	0.081200
N521	N52	0.038300	0.077200	0.143700
N531	N53	0.051400	0.138700	0.117000
C1131	C113	0.053900	0.021900	0.111800
H1131	H113	0.049800	0.971100	0.120600
C1141	C114	0.075600	0.119900	0.069200
H1141	H114	0.089300	0.153600	0.043800
N541	N54	0.076500	0.047200	0.064700
Cu91	Cu9	0.803050	0.850020	0.024180
Cu101	Cu10	0.694170	0.815470	0.966550
O331	O33	0.782900	0.892300	0.106200
O341	O34	0.690500	0.877000	0.048800
C1151	C115	0.734300	0.899300	0.101900
C1161	C116	0.736900	0.941600	0.172600
C1171	C117	0.783600	0.998000	0.208100
C1181	C118	0.684300	0.978500	0.146700
C1191	C119	0.746100	0.894100	0.244200
C1201	C120	0.728100	0.824600	0.232300
O351	O35	0.769200	0.936000	0.954100
O361	O36	0.679500	0.904100	0.900600
C1211	C121	0.718100	0.948100	0.910200
C1221	C122	0.705100	0.018000	0.863100
H1151	H115	0.667900	0.011600	0.813200
C1231	C123	0.750500	0.045200	0.838500
H1161	H116	0.788300	0.023600	0.874300
H1171	H117	0.739300	0.030500	0.782600
C1241	C124	0.699500	0.081900	0.909700
C1251	C125	0.747400	0.081500	0.999100
H1181	H118	0.784700	0.077100	0.001000
H1191	H119	0.741600	0.039500	0.027100
H1201	H120	0.745800	0.127500	0.025100
C1261	C126	0.639000	0.083800	0.907500
H1211	H121	0.636500	0.043100	0.939900
H1221	H122	0.608700	0.078500	0.852000
H1231	H123	0.634400	0.130900	0.929200
O371	O37	0.198400	0.797600	0.067300
O381	O38	0.289500	0.763400	0.110800
C1271	C127	0.244700	0.765100	0.115500
C1281	C128	0.240900	0.725800	0.186400
C1291	C129	0.182900	0.696600	0.168100
H1241	H124	0.176000	0.646500	0.144500
H1251	H125	0.151800	0.730100	0.132600
C1301	C130	0.267300	0.778200	0.263900
C1311	C131	0.248600	0.851400	0.250600
C1321	C132	0.331500	0.787400	0.303100
O391	O39	0.677200	0.257500	0.915100
O401	O40	0.769800	0.238300	0.953400
C1331	C133	0.717100	0.224200	0.912600
C1341	C134	0.699500	0.152400	0.861300
C1351	C135	0.651100	0.167800	0.785700
H1261	H126	0.621000	0.190300	0.794400
H1271	H127	0.636900	0.121700	0.755500
H1281	H128	0.662100	0.201800	0.755200
C1361	C136	0.752500	0.125600	0.845800
H1291	H129	0.749000	0.148400	0.796100
H1301	H130	0.789400	0.141100	0.891200
Cu111	Cu11	0.202830	0.862620	0.461500
Cu121	Cu12	0.308320	0.816900	0.550200
O411	O41	0.239900	0.940800	0.438400
O421	O42	0.331800	0.910900	0.523900
C1371	C137	0.293700	0.955300	0.473100
C1381	C138	0.316900	0.026700	0.449700
C1391	C139	0.268100	0.058700	0.366600
H1311	H131	0.268100	0.033100	0.320400
H1321	H132	0.230000	0.053700	0.363100
C1401	C140	0.372100	0.010100	0.453300
H1331	H133	0.402300	0.011300	0.509200
H1341	H134	0.380300	0.047100	0.422200
H1351	H135	0.370700	0.961000	0.430800
C1411	C141	0.321400	0.091200	0.504400
C1421	C142	0.271300	0.093000	0.525300
H1361	H136	0.237000	0.072200	0.480600
H1371	H137	0.263900	0.144200	0.534500
H1381	H138	0.281600	0.063900	0.573800
C1431	C143	0.375300	0.099300	0.574700
H1391	H139	0.377600	0.148300	0.598000
H1401	H140	0.406000	0.094000	0.560400
H1411	H141	0.379300	0.061300	0.613800
O431	O43	0.211000	0.799900	0.380800
O441	O44	0.303700	0.773700	0.454500
C1441	C144	0.257500	0.769700	0.391400
C1451	C145	0.254500	0.728500	0.319000
C1461	C146	0.191900	0.696300	0.258000
H1421	H142	0.188200	0.645200	0.273700
H1431	H143	0.162100	0.727000	0.260900
C1471	C147	0.298100	0.673900	0.341700
H1441	H144	0.312400	0.673100	0.302500
H1451	H145	0.282400	0.625400	0.343300
H1461	H146	0.329500	0.685800	0.394900
O451	O45	0.328900	0.276000	0.512200
O461	O46	0.240700	0.234300	0.442000
C1481	C148	0.294600	0.228000	0.470600
C1491	C149	0.315300	0.159100	0.452000
H1471	H147	0.354600	0.170100	0.460500
C1501	C150	0.283200	0.132500	0.369100
H1481	H148	0.248300	0.162600	0.340000
H1491	H149	0.306800	0.138400	0.341800
O471	O47	0.785000	0.912300	0.437600
O481	O48	0.696200	0.868300	0.362500
C1511	C151	0.740700	0.905300	0.373900
C1521	C152	0.734600	0.944500	0.299200
H1501	H150	0.763100	0.985600	0.316700
C1531	C153	0.672500	0.979700	0.251100
Co41	Co4	0.503520	0.580900	0.221070
B71	B7	0.472400	0.451300	0.310700
H1511	H151	0.461200	0.412600	0.338300
N551	N55	0.444600	0.493100	0.165100
N561	N56	0.438700	0.442800	0.218100
C1541	C154	0.409100	0.465200	0.096100
H1521	H152	0.400200	0.491100	0.047900
C1551	C155	0.401600	0.388400	0.173200
H1531	H153	0.389000	0.348800	0.193700
N571	N57	0.385600	0.400500	0.093600
N581	N58	0.557800	0.494200	0.301200
N591	N59	0.533100	0.446500	0.333900
C1561	C156	0.610600	0.473700	0.336300
H1541	H154	0.638400	0.500000	0.328400
C1571	C157	0.574500	0.400700	0.383000
H1551	H155	0.568900	0.363100	0.413500
N601	N60	0.625200	0.413500	0.384700
N611	N61	0.470100	0.588300	0.299500
N621	N62	0.459600	0.528500	0.329900
C1581	C158	0.457300	0.645200	0.335300
H1561	H156	0.462000	0.695400	0.325000
C1591	C159	0.443200	0.552300	0.386600
H1571	H157	0.436600	0.520400	0.421300
N631	N63	0.438000	0.625600	0.385400
B81	B8	0.538700	0.713000	0.142700
H1581	H158	0.550900	0.754000	0.118900
N641	N64	0.563800	0.665400	0.281300
N651	N65	0.570000	0.718500	0.234300
C1601	C160	0.594900	0.690400	0.356100
H1591	H159	0.600600	0.663300	0.402300
C1611	C161	0.602400	0.774000	0.282400
H1601	H160	0.612700	0.817500	0.264400
N661	N66	0.617800	0.758100	0.359500
N671	N67	0.449300	0.667800	0.143500
N681	N68	0.474600	0.718500	0.114800
C1621	C162	0.398400	0.693700	0.116900
H1611	H161	0.370100	0.666700	0.123000
C1631	C163	0.435800	0.772500	0.077200
H1621	H162	0.441700	0.814200	0.051800
N691	N69	0.386700	0.758200	0.081200
N701	N70	0.538300	0.577200	0.143700
N711	N71	0.551400	0.638700	0.117000
C1641	C164	0.553900	0.521900	0.111800
H1631	H163	0.549800	0.471100	0.120600
C1651	C165	0.575600	0.619900	0.069200
H1641	H164	0.589300	0.653600	0.043800
N721	N72	0.576500	0.547200	0.064700
Cu131	Cu13	0.303050	0.350020	0.024180
Cu141	Cu14	0.194170	0.315470	0.966550
O491	O49	0.282900	0.392300	0.106200
O501	O50	0.190500	0.377000	0.048800
C1661	C166	0.234300	0.399300	0.101900
C1671	C167	0.236900	0.441600	0.172600
C1681	C168	0.283600	0.498000	0.208100
C1691	C169	0.184300	0.478500	0.146700
C1701	C170	0.246100	0.394100	0.244200
C1711	C171	0.228100	0.324600	0.232300
O511	O51	0.269200	0.436000	0.954100
O521	O52	0.179500	0.404100	0.900600
C1721	C172	0.218100	0.448100	0.910200
C1731	C173	0.205100	0.518000	0.863100
H1651	H165	0.167900	0.511600	0.813200
C1741	C174	0.250500	0.545200	0.838500
H1661	H166	0.288300	0.523600	0.874300
H1671	H167	0.239300	0.530500	0.782600
C1751	C175	0.199500	0.581900	0.909700
C1761	C176	0.247400	0.581500	0.999100
H1681	H168	0.284700	0.577100	0.001000
H1691	H169	0.241600	0.539500	0.027100
H1701	H170	0.245800	0.627500	0.025100
C1771	C177	0.139000	0.583800	0.907500
H1711	H171	0.136500	0.543100	0.939900
H1721	H172	0.108700	0.578500	0.852000
H1731	H173	0.134400	0.630900	0.929200
O531	O53	0.698400	0.297600	0.067300
O541	O54	0.789500	0.263400	0.110800
C1781	C178	0.744700	0.265100	0.115500
C1791	C179	0.740900	0.225800	0.186400
C1801	C180	0.682900	0.196600	0.168100
H1741	H174	0.676000	0.146500	0.144500
H1751	H175	0.651800	0.230100	0.132600
C1811	C181	0.767300	0.278200	0.263900
C1821	C182	0.748600	0.351400	0.250600
C1831	C183	0.831500	0.287400	0.303100
O551	O55	0.177200	0.757500	0.915100
O561	O56	0.269800	0.738300	0.953400
C1841	C184	0.217100	0.724200	0.912600
C1851	C185	0.199500	0.652400	0.861300
C1861	C186	0.151100	0.667800	0.785700
H1761	H176	0.121000	0.690300	0.794400
H1771	H177	0.136900	0.621700	0.755500
H1781	H178	0.162100	0.701800	0.755200
C1871	C187	0.252500	0.625600	0.845800
H1791	H179	0.249000	0.648400	0.796100
H1801	H180	0.289400	0.641100	0.891200
Cu151	Cu15	0.702830	0.362620	0.461500
Cu161	Cu16	0.808320	0.316900	0.550200
O571	O57	0.739900	0.440800	0.438400
O581	O58	0.831800	0.410900	0.523900
C1881	C188	0.793700	0.455300	0.473100
C1891	C189	0.816900	0.526700	0.449700
C1901	C190	0.768100	0.558700	0.366600
H1811	H181	0.768100	0.533100	0.320400
H1821	H182	0.730000	0.553700	0.363100
C1911	C191	0.872100	0.510100	0.453300
H1831	H183	0.902300	0.511300	0.509200
H1841	H184	0.880300	0.547100	0.422200
H1851	H185	0.870700	0.461000	0.430800
C1921	C192	0.821400	0.591200	0.504400
C1931	C193	0.771300	0.593000	0.525300
H1861	H186	0.737000	0.572200	0.480600
H1871	H187	0.763900	0.644200	0.534500
H1881	H188	0.781600	0.563900	0.573800
C1941	C194	0.875300	0.599300	0.574700
H1891	H189	0.877600	0.648300	0.598000
H1901	H190	0.906000	0.594000	0.560400
H1911	H191	0.879300	0.561300	0.613800
O591	O59	0.711000	0.299900	0.380800
O601	O60	0.803700	0.273700	0.454500
C1951	C195	0.757500	0.269700	0.391400
C1961	C196	0.754500	0.228500	0.319000
C1971	C197	0.691900	0.196300	0.258000
H1921	H192	0.688200	0.145200	0.273700
H1931	H193	0.662100	0.227000	0.260900
C1981	C198	0.798100	0.173900	0.341700
H1941	H194	0.812400	0.173100	0.302500
H1951	H195	0.782400	0.125400	0.343300
H1961	H196	0.829500	0.185800	0.394900
O611	O61	0.828900	0.776000	0.512200
O621	O62	0.740700	0.734300	0.442000
C1991	C199	0.794600	0.728000	0.470600
C2001	C200	0.815300	0.659100	0.452000
H1971	H197	0.854600	0.670100	0.460500
C2011	C201	0.783200	0.632500	0.369100
H1981	H198	0.748300	0.662600	0.340000
H1991	H199	0.806800	0.638400	0.341800
O631	O63	0.285000	0.412300	0.437600
O641	O64	0.196200	0.368300	0.362500
C2021	C202	0.240700	0.405300	0.373900
C2031	C203	0.234600	0.444500	0.299200
H2001	H200	0.263100	0.485600	0.316700
C2041	C204	0.172500	0.479700	0.251100
