data_YOZBAS_clean_PM
_symmetry_space_group_name_H-M	'P1'
_cell_length_a	45.611000
_cell_length_b	45.611000
_cell_length_c	45.611000
_cell_angle_alpha	90.000000
_cell_angle_beta	90.000000
_cell_angle_gamma	90.000000
_symmetry_Int_Tables_number 1

loop_
_symmetry_equiv_pos_as_xyz
'x,y,z'

loop_
_atom_site_label
_atom_site_type_symbol
_atom_site_fract_x
_atom_site_fract_y
_atom_site_fract_z
H11	H1	0.186000	0.626400	0.088900
H21	H2	0.189600	0.597600	0.035600
H31	H3	0.283000	0.529500	0.004600
H41	H4	0.329400	0.515100	0.040000
C11	C1	0.305700	0.581700	0.044800
H51	H5	0.315200	0.588900	0.026600
H61	H6	0.306800	0.597500	0.059600
N11	N1	0.393910	0.523850	0.084580
C21	C2	0.273000	0.574200	0.038400
H71	H7	0.260200	0.586100	0.051200
H81	H8	0.268300	0.579100	0.017800
C31	C3	0.356800	0.594700	0.131400
H91	H9	0.366600	0.576900	0.139000
H101	H10	0.336300	0.589400	0.126500
H111	H11	0.413400	0.596200	0.121000
C41	C4	0.377200	0.514600	0.109900
H121	H12	0.356500	0.511400	0.104200
H131	H13	0.377800	0.530100	0.125000
C51	C5	0.393800	0.499500	0.062400
H141	H14	0.405100	0.505500	0.044900
H151	H15	0.373400	0.495300	0.056200
C61	C6	0.424500	0.528000	0.092600
H161	H16	0.426000	0.544400	0.106800
H171	H17	0.435900	0.533400	0.074900
H181	H18	0.186000	0.126400	0.588900
H191	H19	0.189600	0.097600	0.535600
H201	H20	0.283000	0.029500	0.504600
H211	H21	0.329400	0.015100	0.540000
C71	C7	0.305700	0.081700	0.544800
H221	H22	0.315200	0.088900	0.526600
H231	H23	0.306800	0.097500	0.559600
N21	N2	0.393910	0.023850	0.584580
C81	C8	0.273000	0.074200	0.538400
H241	H24	0.260200	0.086100	0.551200
H251	H25	0.268300	0.079100	0.517800
C91	C9	0.356800	0.094700	0.631400
H261	H26	0.366600	0.076900	0.639000
H271	H27	0.336300	0.089400	0.626500
H281	H28	0.413400	0.096200	0.621000
C101	C10	0.377200	0.014600	0.609900
H291	H29	0.356500	0.011400	0.604200
H301	H30	0.377800	0.030100	0.625000
C111	C11	0.393800	0.999500	0.562400
H311	H31	0.405100	0.005500	0.544900
H321	H32	0.373400	0.995300	0.556200
C121	C12	0.424500	0.028000	0.592600
H331	H33	0.426000	0.044400	0.606800
H341	H34	0.435900	0.033400	0.574900
H351	H35	0.686000	0.626400	0.588900
H361	H36	0.689600	0.597600	0.535600
H371	H37	0.783000	0.529500	0.504600
H381	H38	0.829400	0.515100	0.540000
C131	C13	0.805700	0.581700	0.544800
H391	H39	0.815200	0.588900	0.526600
H401	H40	0.806800	0.597500	0.559600
N31	N3	0.893910	0.523850	0.584580
C141	C14	0.773000	0.574200	0.538400
H411	H41	0.760200	0.586100	0.551200
H421	H42	0.768300	0.579100	0.517800
C151	C15	0.856800	0.594700	0.631400
H431	H43	0.866600	0.576900	0.639000
H441	H44	0.836300	0.589400	0.626500
H451	H45	0.913400	0.596200	0.621000
C161	C16	0.877200	0.514600	0.609900
H461	H46	0.856500	0.511400	0.604200
H471	H47	0.877800	0.530100	0.625000
C171	C17	0.893800	0.499500	0.562400
H481	H48	0.905100	0.505500	0.544900
H491	H49	0.873400	0.495300	0.556200
C181	C18	0.924500	0.528000	0.592600
H501	H50	0.926000	0.544400	0.606800
H511	H51	0.935900	0.533400	0.574900
H521	H52	0.686000	0.126400	0.088900
H531	H53	0.689600	0.097600	0.035600
H541	H54	0.783000	0.029500	0.004600
H551	H55	0.829400	0.015100	0.040000
C191	C19	0.805700	0.081700	0.044800
H561	H56	0.815200	0.088900	0.026600
H571	H57	0.806800	0.097500	0.059600
N41	N4	0.893910	0.023850	0.084580
C201	C20	0.773000	0.074200	0.038400
H581	H58	0.760200	0.086100	0.051200
H591	H59	0.768300	0.079100	0.017800
C211	C21	0.856800	0.094700	0.131400
H601	H60	0.866600	0.076900	0.139000
H611	H61	0.836300	0.089400	0.126500
H621	H62	0.913400	0.096200	0.121000
C221	C22	0.877200	0.014600	0.109900
H631	H63	0.856500	0.011400	0.104200
H641	H64	0.877800	0.030100	0.125000
C231	C23	0.893800	0.999500	0.062400
H651	H65	0.905100	0.005500	0.044900
H661	H66	0.873400	0.995300	0.056200
C241	C24	0.924500	0.028000	0.092600
H671	H67	0.926000	0.044400	0.106800
H681	H68	0.935900	0.033400	0.074900
H691	H69	0.564000	0.623600	0.588900
H701	H70	0.560400	0.652400	0.535600
H711	H71	0.467000	0.720500	0.504600
H721	H72	0.420600	0.734900	0.540000
C251	C25	0.444300	0.668300	0.544800
H731	H73	0.434800	0.661100	0.526600
H741	H74	0.443200	0.652500	0.559600
N51	N5	0.356090	0.726150	0.584580
C261	C26	0.477000	0.675800	0.538400
H751	H75	0.489800	0.663900	0.551200
H761	H76	0.481700	0.670900	0.517800
C271	C27	0.393200	0.655300	0.631400
H771	H77	0.383400	0.673100	0.639000
H781	H78	0.413700	0.660600	0.626500
H791	H79	0.336600	0.653800	0.621000
C281	C28	0.372800	0.735400	0.609900
H801	H80	0.393500	0.738600	0.604200
H811	H81	0.372200	0.719900	0.625000
C291	C29	0.356200	0.750500	0.562400
H821	H82	0.344900	0.744500	0.544900
H831	H83	0.376600	0.754700	0.556200
C301	C30	0.325500	0.722000	0.592600
H841	H84	0.324000	0.705600	0.606800
H851	H85	0.314100	0.716600	0.574900
H861	H86	0.564000	0.123600	0.088900
H871	H87	0.560400	0.152400	0.035600
H881	H88	0.467000	0.220500	0.004600
H891	H89	0.420600	0.234900	0.040000
C311	C31	0.444300	0.168300	0.044800
H901	H90	0.434800	0.161100	0.026600
H911	H91	0.443200	0.152500	0.059600
N61	N6	0.356090	0.226150	0.084580
C321	C32	0.477000	0.175800	0.038400
H921	H92	0.489800	0.163900	0.051200
H931	H93	0.481700	0.170900	0.017800
C331	C33	0.393200	0.155300	0.131400
H941	H94	0.383400	0.173100	0.139000
H951	H95	0.413700	0.160600	0.126500
H961	H96	0.336600	0.153800	0.121000
C341	C34	0.372800	0.235400	0.109900
H971	H97	0.393500	0.238600	0.104200
H981	H98	0.372200	0.219900	0.125000
C351	C35	0.356200	0.250500	0.062400
H991	H99	0.344900	0.244500	0.044900
H1001	H100	0.376600	0.254700	0.056200
C361	C36	0.325500	0.222000	0.092600
H1011	H101	0.324000	0.205600	0.106800
H1021	H102	0.314100	0.216600	0.074900
H1031	H103	0.064000	0.623600	0.088900
H1041	H104	0.060400	0.652400	0.035600
H1051	H105	0.967000	0.720500	0.004600
H1061	H106	0.920600	0.734900	0.040000
C371	C37	0.944300	0.668300	0.044800
H1071	H107	0.934800	0.661100	0.026600
H1081	H108	0.943200	0.652500	0.059600
N71	N7	0.856090	0.726150	0.084580
C381	C38	0.977000	0.675800	0.038400
H1091	H109	0.989800	0.663900	0.051200
H1101	H110	0.981700	0.670900	0.017800
C391	C39	0.893200	0.655300	0.131400
H1111	H111	0.883400	0.673100	0.139000
H1121	H112	0.913700	0.660600	0.126500
H1131	H113	0.836600	0.653800	0.121000
C401	C40	0.872800	0.735400	0.109900
H1141	H114	0.893500	0.738600	0.104200
H1151	H115	0.872200	0.719900	0.125000
C411	C41	0.856200	0.750500	0.062400
H1161	H116	0.844900	0.744500	0.044900
H1171	H117	0.876600	0.754700	0.056200
C421	C42	0.825500	0.722000	0.092600
H1181	H118	0.824000	0.705600	0.106800
H1191	H119	0.814100	0.716600	0.074900
H1201	H120	0.064000	0.123600	0.588900
H1211	H121	0.060400	0.152400	0.535600
H1221	H122	0.967000	0.220500	0.504600
H1231	H123	0.920600	0.234900	0.540000
C431	C43	0.944300	0.168300	0.544800
H1241	H124	0.934800	0.161100	0.526600
H1251	H125	0.943200	0.152500	0.559600
N81	N8	0.856090	0.226150	0.584580
C441	C44	0.977000	0.175800	0.538400
H1261	H126	0.989800	0.163900	0.551200
H1271	H127	0.981700	0.170900	0.517800
C451	C45	0.893200	0.155300	0.631400
H1281	H128	0.883400	0.173100	0.639000
H1291	H129	0.913700	0.160600	0.626500
H1301	H130	0.836600	0.153800	0.621000
C461	C46	0.872800	0.235400	0.609900
H1311	H131	0.893500	0.238600	0.604200
H1321	H132	0.872200	0.219900	0.625000
C471	C47	0.856200	0.250500	0.562400
H1331	H133	0.844900	0.244500	0.544900
H1341	H134	0.876600	0.254700	0.556200
C481	C48	0.825500	0.222000	0.592600
H1351	H135	0.824000	0.205600	0.606800
H1361	H136	0.814100	0.216600	0.574900
H1371	H137	0.064000	0.126400	0.661100
H1381	H138	0.060400	0.097600	0.714400
H1391	H139	0.967000	0.029500	0.745400
H1401	H140	0.920600	0.015100	0.710000
C491	C49	0.944300	0.081700	0.705200
H1411	H141	0.934800	0.088900	0.723400
H1421	H142	0.943200	0.097500	0.690400
N91	N9	0.856090	0.023850	0.665420
C501	C50	0.977000	0.074200	0.711600
H1431	H143	0.989800	0.086100	0.698800
H1441	H144	0.981700	0.079100	0.732200
C511	C51	0.893200	0.094700	0.618600
H1451	H145	0.883400	0.076900	0.611000
H1461	H146	0.913700	0.089400	0.623500
H1471	H147	0.836600	0.096200	0.629000
C521	C52	0.872800	0.014600	0.640100
H1481	H148	0.893500	0.011400	0.645800
H1491	H149	0.872200	0.030100	0.625000
C531	C53	0.856200	0.999500	0.687600
H1501	H150	0.844900	0.005500	0.705100
H1511	H151	0.876600	0.995300	0.693800
C541	C54	0.825500	0.028000	0.657400
H1521	H152	0.824000	0.044400	0.643200
H1531	H153	0.814100	0.033400	0.675100
H1541	H154	0.064000	0.626400	0.161100
H1551	H155	0.060400	0.597600	0.214400
H1561	H156	0.967000	0.529500	0.245400
H1571	H157	0.920600	0.515100	0.210000
C551	C55	0.944300	0.581700	0.205200
H1581	H158	0.934800	0.588900	0.223400
H1591	H159	0.943200	0.597500	0.190400
N101	N10	0.856090	0.523850	0.165420
C561	C56	0.977000	0.574200	0.211600
H1601	H160	0.989800	0.586100	0.198800
H1611	H161	0.981700	0.579100	0.232200
C571	C57	0.893200	0.594700	0.118600
H1621	H162	0.883400	0.576900	0.111000
H1631	H163	0.913700	0.589400	0.123500
H1641	H164	0.836600	0.596200	0.129000
C581	C58	0.872800	0.514600	0.140100
H1651	H165	0.893500	0.511400	0.145800
H1661	H166	0.872200	0.530100	0.125000
C591	C59	0.856200	0.499500	0.187600
H1671	H167	0.844900	0.505500	0.205100
H1681	H168	0.876600	0.495300	0.193800
C601	C60	0.825500	0.528000	0.157400
H1691	H169	0.824000	0.544400	0.143200
H1701	H170	0.814100	0.533400	0.175100
H1711	H171	0.564000	0.126400	0.161100
H1721	H172	0.560400	0.097600	0.214400
H1731	H173	0.467000	0.029500	0.245400
H1741	H174	0.420600	0.015100	0.210000
C611	C61	0.444300	0.081700	0.205200
H1751	H175	0.434800	0.088900	0.223400
H1761	H176	0.443200	0.097500	0.190400
N111	N11	0.356090	0.023850	0.165420
C621	C62	0.477000	0.074200	0.211600
H1771	H177	0.489800	0.086100	0.198800
H1781	H178	0.481700	0.079100	0.232200
C631	C63	0.393200	0.094700	0.118600
H1791	H179	0.383400	0.076900	0.111000
H1801	H180	0.413700	0.089400	0.123500
H1811	H181	0.336600	0.096200	0.129000
C641	C64	0.372800	0.014600	0.140100
H1821	H182	0.393500	0.011400	0.145800
H1831	H183	0.372200	0.030100	0.125000
C651	C65	0.356200	0.999500	0.187600
H1841	H184	0.344900	0.005500	0.205100
H1851	H185	0.376600	0.995300	0.193800
C661	C66	0.325500	0.028000	0.157400
H1861	H186	0.324000	0.044400	0.143200
H1871	H187	0.314100	0.033400	0.175100
H1881	H188	0.564000	0.626400	0.661100
H1891	H189	0.560400	0.597600	0.714400
H1901	H190	0.467000	0.529500	0.745400
H1911	H191	0.420600	0.515100	0.710000
C671	C67	0.444300	0.581700	0.705200
H1921	H192	0.434800	0.588900	0.723400
H1931	H193	0.443200	0.597500	0.690400
N121	N12	0.356090	0.523850	0.665420
C681	C68	0.477000	0.574200	0.711600
H1941	H194	0.489800	0.586100	0.698800
H1951	H195	0.481700	0.579100	0.732200
C691	C69	0.393200	0.594700	0.618600
H1961	H196	0.383400	0.576900	0.611000
H1971	H197	0.413700	0.589400	0.623500
H1981	H198	0.336600	0.596200	0.629000
C701	C70	0.372800	0.514600	0.640100
H1991	H199	0.393500	0.511400	0.645800
H2001	H200	0.372200	0.530100	0.625000
C711	C71	0.356200	0.499500	0.687600
H2011	H201	0.344900	0.505500	0.705100
H2021	H202	0.376600	0.495300	0.693800
C721	C72	0.325500	0.528000	0.657400
H2031	H203	0.324000	0.544400	0.643200
H2041	H204	0.314100	0.533400	0.675100
H2051	H205	0.686000	0.123600	0.161100
H2061	H206	0.689600	0.152400	0.214400
H2071	H207	0.783000	0.220500	0.245400
H2081	H208	0.829400	0.234900	0.210000
C731	C73	0.805700	0.168300	0.205200
H2091	H209	0.815200	0.161100	0.223400
H2101	H210	0.806800	0.152500	0.190400
N131	N13	0.893910	0.226150	0.165420
C741	C74	0.773000	0.175800	0.211600
H2111	H211	0.760200	0.163900	0.198800
H2121	H212	0.768300	0.170900	0.232200
C751	C75	0.856800	0.155300	0.118600
H2131	H213	0.866600	0.173100	0.111000
H2141	H214	0.836300	0.160600	0.123500
H2151	H215	0.913400	0.153800	0.129000
C761	C76	0.877200	0.235400	0.140100
H2161	H216	0.856500	0.238600	0.145800
H2171	H217	0.877800	0.219900	0.125000
C771	C77	0.893800	0.250500	0.187600
H2181	H218	0.905100	0.244500	0.205100
H2191	H219	0.873400	0.254700	0.193800
C781	C78	0.924500	0.222000	0.157400
H2201	H220	0.926000	0.205600	0.143200
H2211	H221	0.935900	0.216600	0.175100
H2221	H222	0.686000	0.623600	0.661100
H2231	H223	0.689600	0.652400	0.714400
H2241	H224	0.783000	0.720500	0.745400
H2251	H225	0.829400	0.734900	0.710000
C791	C79	0.805700	0.668300	0.705200
H2261	H226	0.815200	0.661100	0.723400
H2271	H227	0.806800	0.652500	0.690400
N141	N14	0.893910	0.726150	0.665420
C801	C80	0.773000	0.675800	0.711600
H2281	H228	0.760200	0.663900	0.698800
H2291	H229	0.768300	0.670900	0.732200
C811	C81	0.856800	0.655300	0.618600
H2301	H230	0.866600	0.673100	0.611000
H2311	H231	0.836300	0.660600	0.623500
H2321	H232	0.913400	0.653800	0.629000
C821	C82	0.877200	0.735400	0.640100
H2331	H233	0.856500	0.738600	0.645800
H2341	H234	0.877800	0.719900	0.625000
C831	C83	0.893800	0.750500	0.687600
H2351	H235	0.905100	0.744500	0.705100
H2361	H236	0.873400	0.754700	0.693800
C841	C84	0.924500	0.722000	0.657400
H2371	H237	0.926000	0.705600	0.643200
H2381	H238	0.935900	0.716600	0.675100
H2391	H239	0.186000	0.123600	0.661100
H2401	H240	0.189600	0.152400	0.714400
H2411	H241	0.283000	0.220500	0.745400
H2421	H242	0.329400	0.234900	0.710000
C851	C85	0.305700	0.168300	0.705200
H2431	H243	0.315200	0.161100	0.723400
H2441	H244	0.306800	0.152500	0.690400
N151	N15	0.393910	0.226150	0.665420
C861	C86	0.273000	0.175800	0.711600
H2451	H245	0.260200	0.163900	0.698800
H2461	H246	0.268300	0.170900	0.732200
C871	C87	0.356800	0.155300	0.618600
H2471	H247	0.366600	0.173100	0.611000
H2481	H248	0.336300	0.160600	0.623500
H2491	H249	0.413400	0.153800	0.629000
C881	C88	0.377200	0.235400	0.640100
H2501	H250	0.356500	0.238600	0.645800
H2511	H251	0.377800	0.219900	0.625000
C891	C89	0.393800	0.250500	0.687600
H2521	H252	0.405100	0.244500	0.705100
H2531	H253	0.373400	0.254700	0.693800
C901	C90	0.424500	0.222000	0.657400
H2541	H254	0.426000	0.205600	0.643200
H2551	H255	0.435900	0.216600	0.675100
H2561	H256	0.186000	0.623600	0.161100
H2571	H257	0.189600	0.652400	0.214400
H2581	H258	0.283000	0.720500	0.245400
H2591	H259	0.329400	0.734900	0.210000
C911	C91	0.305700	0.668300	0.205200
H2601	H260	0.315200	0.661100	0.223400
H2611	H261	0.306800	0.652500	0.190400
N161	N16	0.393910	0.726150	0.165420
C921	C92	0.273000	0.675800	0.211600
H2621	H262	0.260200	0.663900	0.198800
H2631	H263	0.268300	0.670900	0.232200
C931	C93	0.356800	0.655300	0.118600
H2641	H264	0.366600	0.673100	0.111000
H2651	H265	0.336300	0.660600	0.123500
H2661	H266	0.413400	0.653800	0.129000
C941	C94	0.377200	0.735400	0.140100
H2671	H267	0.356500	0.738600	0.145800
H2681	H268	0.377800	0.719900	0.125000
C951	C95	0.393800	0.750500	0.187600
H2691	H269	0.405100	0.744500	0.205100
H2701	H270	0.373400	0.754700	0.193800
C961	C96	0.424500	0.722000	0.157400
H2711	H271	0.426000	0.705600	0.143200
H2721	H272	0.435900	0.716600	0.175100
H2731	H273	0.088900	0.186000	0.626400
H2741	H274	0.035600	0.189600	0.597600
H2751	H275	0.004600	0.283000	0.529500
H2761	H276	0.040000	0.329400	0.515100
C971	C97	0.044800	0.305700	0.581700
H2771	H277	0.026600	0.315200	0.588900
H2781	H278	0.059600	0.306800	0.597500
N171	N17	0.084580	0.393910	0.523850
C981	C98	0.038400	0.273000	0.574200
H2791	H279	0.051200	0.260200	0.586100
H2801	H280	0.017800	0.268300	0.579100
C991	C99	0.131400	0.356800	0.594700
H2811	H281	0.139000	0.366600	0.576900
H2821	H282	0.126500	0.336300	0.589400
H2831	H283	0.121000	0.413400	0.596200
C1001	C100	0.109900	0.377200	0.514600
H2841	H284	0.104200	0.356500	0.511400
H2851	H285	0.125000	0.377800	0.530100
C1011	C101	0.062400	0.393800	0.499500
H2861	H286	0.044900	0.405100	0.505500
H2871	H287	0.056200	0.373400	0.495300
C1021	C102	0.092600	0.424500	0.528000
H2881	H288	0.106800	0.426000	0.544400
H2891	H289	0.074900	0.435900	0.533400
H2901	H290	0.088900	0.686000	0.126400
H2911	H291	0.035600	0.689600	0.097600
H2921	H292	0.004600	0.783000	0.029500
H2931	H293	0.040000	0.829400	0.015100
C1031	C103	0.044800	0.805700	0.081700
H2941	H294	0.026600	0.815200	0.088900
H2951	H295	0.059600	0.806800	0.097500
N181	N18	0.084580	0.893910	0.023850
C1041	C104	0.038400	0.773000	0.074200
H2961	H296	0.051200	0.760200	0.086100
H2971	H297	0.017800	0.768300	0.079100
C1051	C105	0.131400	0.856800	0.094700
H2981	H298	0.139000	0.866600	0.076900
H2991	H299	0.126500	0.836300	0.089400
H3001	H300	0.121000	0.913400	0.096200
C1061	C106	0.109900	0.877200	0.014600
H3011	H301	0.104200	0.856500	0.011400
H3021	H302	0.125000	0.877800	0.030100
C1071	C107	0.062400	0.893800	0.999500
H3031	H303	0.044900	0.905100	0.005500
H3041	H304	0.056200	0.873400	0.995300
C1081	C108	0.092600	0.924500	0.028000
H3051	H305	0.106800	0.926000	0.044400
H3061	H306	0.074900	0.935900	0.033400
H3071	H307	0.588900	0.186000	0.126400
H3081	H308	0.535600	0.189600	0.097600
H3091	H309	0.504600	0.283000	0.029500
H3101	H310	0.540000	0.329400	0.015100
C1091	C109	0.544800	0.305700	0.081700
H3111	H311	0.526600	0.315200	0.088900
H3121	H312	0.559600	0.306800	0.097500
N191	N19	0.584580	0.393910	0.023850
C1101	C110	0.538400	0.273000	0.074200
H3131	H313	0.551200	0.260200	0.086100
H3141	H314	0.517800	0.268300	0.079100
C1111	C111	0.631400	0.356800	0.094700
H3151	H315	0.639000	0.366600	0.076900
H3161	H316	0.626500	0.336300	0.089400
H3171	H317	0.621000	0.413400	0.096200
C1121	C112	0.609900	0.377200	0.014600
H3181	H318	0.604200	0.356500	0.011400
H3191	H319	0.625000	0.377800	0.030100
C1131	C113	0.562400	0.393800	0.999500
H3201	H320	0.544900	0.405100	0.005500
H3211	H321	0.556200	0.373400	0.995300
C1141	C114	0.592600	0.424500	0.028000
H3221	H322	0.606800	0.426000	0.044400
H3231	H323	0.574900	0.435900	0.033400
H3241	H324	0.588900	0.686000	0.626400
H3251	H325	0.535600	0.689600	0.597600
H3261	H326	0.504600	0.783000	0.529500
H3271	H327	0.540000	0.829400	0.515100
C1151	C115	0.544800	0.805700	0.581700
H3281	H328	0.526600	0.815200	0.588900
H3291	H329	0.559600	0.806800	0.597500
N201	N20	0.584580	0.893910	0.523850
C1161	C116	0.538400	0.773000	0.574200
H3301	H330	0.551200	0.760200	0.586100
H3311	H331	0.517800	0.768300	0.579100
C1171	C117	0.631400	0.856800	0.594700
H3321	H332	0.639000	0.866600	0.576900
H3331	H333	0.626500	0.836300	0.589400
H3341	H334	0.621000	0.913400	0.596200
C1181	C118	0.609900	0.877200	0.514600
H3351	H335	0.604200	0.856500	0.511400
H3361	H336	0.625000	0.877800	0.530100
C1191	C119	0.562400	0.893800	0.499500
H3371	H337	0.544900	0.905100	0.505500
H3381	H338	0.556200	0.873400	0.495300
C1201	C120	0.592600	0.924500	0.528000
H3391	H339	0.606800	0.926000	0.544400
H3401	H340	0.574900	0.935900	0.533400
H3411	H341	0.588900	0.564000	0.623600
H3421	H342	0.535600	0.560400	0.652400
H3431	H343	0.504600	0.467000	0.720500
H3441	H344	0.540000	0.420600	0.734900
C1211	C121	0.544800	0.444300	0.668300
H3451	H345	0.526600	0.434800	0.661100
H3461	H346	0.559600	0.443200	0.652500
N211	N21	0.584580	0.356090	0.726150
C1221	C122	0.538400	0.477000	0.675800
H3471	H347	0.551200	0.489800	0.663900
H3481	H348	0.517800	0.481700	0.670900
C1231	C123	0.631400	0.393200	0.655300
H3491	H349	0.639000	0.383400	0.673100
H3501	H350	0.626500	0.413700	0.660600
H3511	H351	0.621000	0.336600	0.653800
C1241	C124	0.609900	0.372800	0.735400
H3521	H352	0.604200	0.393500	0.738600
H3531	H353	0.625000	0.372200	0.719900
C1251	C125	0.562400	0.356200	0.750500
H3541	H354	0.544900	0.344900	0.744500
H3551	H355	0.556200	0.376600	0.754700
C1261	C126	0.592600	0.325500	0.722000
H3561	H356	0.606800	0.324000	0.705600
H3571	H357	0.574900	0.314100	0.716600
H3581	H358	0.588900	0.064000	0.123600
H3591	H359	0.535600	0.060400	0.152400
H3601	H360	0.504600	0.967000	0.220500
H3611	H361	0.540000	0.920600	0.234900
C1271	C127	0.544800	0.944300	0.168300
H3621	H362	0.526600	0.934800	0.161100
H3631	H363	0.559600	0.943200	0.152500
N221	N22	0.584580	0.856090	0.226150
C1281	C128	0.538400	0.977000	0.175800
H3641	H364	0.551200	0.989800	0.163900
H3651	H365	0.517800	0.981700	0.170900
C1291	C129	0.631400	0.893200	0.155300
H3661	H366	0.639000	0.883400	0.173100
H3671	H367	0.626500	0.913700	0.160600
H3681	H368	0.621000	0.836600	0.153800
C1301	C130	0.609900	0.872800	0.235400
H3691	H369	0.604200	0.893500	0.238600
H3701	H370	0.625000	0.872200	0.219900
C1311	C131	0.562400	0.856200	0.250500
H3711	H371	0.544900	0.844900	0.244500
H3721	H372	0.556200	0.876600	0.254700
C1321	C132	0.592600	0.825500	0.222000
H3731	H373	0.606800	0.824000	0.205600
H3741	H374	0.574900	0.814100	0.216600
H3751	H375	0.088900	0.564000	0.123600
H3761	H376	0.035600	0.560400	0.152400
H3771	H377	0.004600	0.467000	0.220500
H3781	H378	0.040000	0.420600	0.234900
C1331	C133	0.044800	0.444300	0.168300
H3791	H379	0.026600	0.434800	0.161100
H3801	H380	0.059600	0.443200	0.152500
N231	N23	0.084580	0.356090	0.226150
C1341	C134	0.038400	0.477000	0.175800
H3811	H381	0.051200	0.489800	0.163900
H3821	H382	0.017800	0.481700	0.170900
C1351	C135	0.131400	0.393200	0.155300
H3831	H383	0.139000	0.383400	0.173100
H3841	H384	0.126500	0.413700	0.160600
H3851	H385	0.121000	0.336600	0.153800
C1361	C136	0.109900	0.372800	0.235400
H3861	H386	0.104200	0.393500	0.238600
H3871	H387	0.125000	0.372200	0.219900
C1371	C137	0.062400	0.356200	0.250500
H3881	H388	0.044900	0.344900	0.244500
H3891	H389	0.056200	0.376600	0.254700
C1381	C138	0.092600	0.325500	0.222000
H3901	H390	0.106800	0.324000	0.205600
H3911	H391	0.074900	0.314100	0.216600
H3921	H392	0.088900	0.064000	0.623600
H3931	H393	0.035600	0.060400	0.652400
H3941	H394	0.004600	0.967000	0.720500
H3951	H395	0.040000	0.920600	0.734900
C1391	C139	0.044800	0.944300	0.668300
H3961	H396	0.026600	0.934800	0.661100
H3971	H397	0.059600	0.943200	0.652500
N241	N24	0.084580	0.856090	0.726150
C1401	C140	0.038400	0.977000	0.675800
H3981	H398	0.051200	0.989800	0.663900
H3991	H399	0.017800	0.981700	0.670900
C1411	C141	0.131400	0.893200	0.655300
H4001	H400	0.139000	0.883400	0.673100
H4011	H401	0.126500	0.913700	0.660600
H4021	H402	0.121000	0.836600	0.653800
C1421	C142	0.109900	0.872800	0.735400
H4031	H403	0.104200	0.893500	0.738600
H4041	H404	0.125000	0.872200	0.719900
C1431	C143	0.062400	0.856200	0.750500
H4051	H405	0.044900	0.844900	0.744500
H4061	H406	0.056200	0.876600	0.754700
C1441	C144	0.092600	0.825500	0.722000
H4071	H407	0.106800	0.824000	0.705600
H4081	H408	0.074900	0.814100	0.716600
H4091	H409	0.661100	0.064000	0.126400
H4101	H410	0.714400	0.060400	0.097600
H4111	H411	0.745400	0.967000	0.029500
H4121	H412	0.710000	0.920600	0.015100
C1451	C145	0.705200	0.944300	0.081700
H4131	H413	0.723400	0.934800	0.088900
H4141	H414	0.690400	0.943200	0.097500
N251	N25	0.665420	0.856090	0.023850
C1461	C146	0.711600	0.977000	0.074200
H4151	H415	0.698800	0.989800	0.086100
H4161	H416	0.732200	0.981700	0.079100
C1471	C147	0.618600	0.893200	0.094700
H4171	H417	0.611000	0.883400	0.076900
H4181	H418	0.623500	0.913700	0.089400
H4191	H419	0.629000	0.836600	0.096200
C1481	C148	0.640100	0.872800	0.014600
H4201	H420	0.645800	0.893500	0.011400
H4211	H421	0.625000	0.872200	0.030100
C1491	C149	0.687600	0.856200	0.999500
H4221	H422	0.705100	0.844900	0.005500
H4231	H423	0.693800	0.876600	0.995300
C1501	C150	0.657400	0.825500	0.028000
H4241	H424	0.643200	0.824000	0.044400
H4251	H425	0.675100	0.814100	0.033400
H4261	H426	0.661100	0.564000	0.626400
H4271	H427	0.714400	0.560400	0.597600
H4281	H428	0.745400	0.467000	0.529500
H4291	H429	0.710000	0.420600	0.515100
C1511	C151	0.705200	0.444300	0.581700
H4301	H430	0.723400	0.434800	0.588900
H4311	H431	0.690400	0.443200	0.597500
N261	N26	0.665420	0.356090	0.523850
C1521	C152	0.711600	0.477000	0.574200
H4321	H432	0.698800	0.489800	0.586100
H4331	H433	0.732200	0.481700	0.579100
C1531	C153	0.618600	0.393200	0.594700
H4341	H434	0.611000	0.383400	0.576900
H4351	H435	0.623500	0.413700	0.589400
H4361	H436	0.629000	0.336600	0.596200
C1541	C154	0.640100	0.372800	0.514600
H4371	H437	0.645800	0.393500	0.511400
H4381	H438	0.625000	0.372200	0.530100
C1551	C155	0.687600	0.356200	0.499500
H4391	H439	0.705100	0.344900	0.505500
H4401	H440	0.693800	0.376600	0.495300
C1561	C156	0.657400	0.325500	0.528000
H4411	H441	0.643200	0.324000	0.544400
H4421	H442	0.675100	0.314100	0.533400
H4431	H443	0.161100	0.064000	0.626400
H4441	H444	0.214400	0.060400	0.597600
H4451	H445	0.245400	0.967000	0.529500
H4461	H446	0.210000	0.920600	0.515100
C1571	C157	0.205200	0.944300	0.581700
H4471	H447	0.223400	0.934800	0.588900
H4481	H448	0.190400	0.943200	0.597500
N271	N27	0.165420	0.856090	0.523850
C1581	C158	0.211600	0.977000	0.574200
H4491	H449	0.198800	0.989800	0.586100
H4501	H450	0.232200	0.981700	0.579100
C1591	C159	0.118600	0.893200	0.594700
H4511	H451	0.111000	0.883400	0.576900
H4521	H452	0.123500	0.913700	0.589400
H4531	H453	0.129000	0.836600	0.596200
C1601	C160	0.140100	0.872800	0.514600
H4541	H454	0.145800	0.893500	0.511400
H4551	H455	0.125000	0.872200	0.530100
C1611	C161	0.187600	0.856200	0.499500
H4561	H456	0.205100	0.844900	0.505500
H4571	H457	0.193800	0.876600	0.495300
C1621	C162	0.157400	0.825500	0.528000
H4581	H458	0.143200	0.824000	0.544400
H4591	H459	0.175100	0.814100	0.533400
H4601	H460	0.161100	0.564000	0.126400
H4611	H461	0.214400	0.560400	0.097600
H4621	H462	0.245400	0.467000	0.029500
H4631	H463	0.210000	0.420600	0.015100
C1631	C163	0.205200	0.444300	0.081700
H4641	H464	0.223400	0.434800	0.088900
H4651	H465	0.190400	0.443200	0.097500
N281	N28	0.165420	0.356090	0.023850
C1641	C164	0.211600	0.477000	0.074200
H4661	H466	0.198800	0.489800	0.086100
H4671	H467	0.232200	0.481700	0.079100
C1651	C165	0.118600	0.393200	0.094700
H4681	H468	0.111000	0.383400	0.076900
H4691	H469	0.123500	0.413700	0.089400
H4701	H470	0.129000	0.336600	0.096200
C1661	C166	0.140100	0.372800	0.014600
H4711	H471	0.145800	0.393500	0.011400
H4721	H472	0.125000	0.372200	0.030100
C1671	C167	0.187600	0.356200	0.999500
H4731	H473	0.205100	0.344900	0.005500
H4741	H474	0.193800	0.376600	0.995300
C1681	C168	0.157400	0.325500	0.028000
H4751	H475	0.143200	0.324000	0.044400
H4761	H476	0.175100	0.314100	0.033400
H4771	H477	0.161100	0.686000	0.123600
H4781	H478	0.214400	0.689600	0.152400
H4791	H479	0.245400	0.783000	0.220500
H4801	H480	0.210000	0.829400	0.234900
C1691	C169	0.205200	0.805700	0.168300
H4811	H481	0.223400	0.815200	0.161100
H4821	H482	0.190400	0.806800	0.152500
N291	N29	0.165420	0.893910	0.226150
C1701	C170	0.211600	0.773000	0.175800
H4831	H483	0.198800	0.760200	0.163900
H4841	H484	0.232200	0.768300	0.170900
C1711	C171	0.118600	0.856800	0.155300
H4851	H485	0.111000	0.866600	0.173100
H4861	H486	0.123500	0.836300	0.160600
H4871	H487	0.129000	0.913400	0.153800
C1721	C172	0.140100	0.877200	0.235400
H4881	H488	0.145800	0.856500	0.238600
H4891	H489	0.125000	0.877800	0.219900
C1731	C173	0.187600	0.893800	0.250500
H4901	H490	0.205100	0.905100	0.244500
H4911	H491	0.193800	0.873400	0.254700
C1741	C174	0.157400	0.924500	0.222000
H4921	H492	0.143200	0.926000	0.205600
H4931	H493	0.175100	0.935900	0.216600
H4941	H494	0.161100	0.186000	0.623600
H4951	H495	0.214400	0.189600	0.652400
H4961	H496	0.245400	0.283000	0.720500
H4971	H497	0.210000	0.329400	0.734900
C1751	C175	0.205200	0.305700	0.668300
H4981	H498	0.223400	0.315200	0.661100
H4991	H499	0.190400	0.306800	0.652500
N301	N30	0.165420	0.393910	0.726150
C1761	C176	0.211600	0.273000	0.675800
H5001	H500	0.198800	0.260200	0.663900
H5011	H501	0.232200	0.268300	0.670900
C1771	C177	0.118600	0.356800	0.655300
H5021	H502	0.111000	0.366600	0.673100
H5031	H503	0.123500	0.336300	0.660600
H5041	H504	0.129000	0.413400	0.653800
C1781	C178	0.140100	0.377200	0.735400
H5051	H505	0.145800	0.356500	0.738600
H5061	H506	0.125000	0.377800	0.719900
C1791	C179	0.187600	0.393800	0.750500
H5071	H507	0.205100	0.405100	0.744500
H5081	H508	0.193800	0.373400	0.754700
C1801	C180	0.157400	0.424500	0.722000
H5091	H509	0.143200	0.426000	0.705600
H5101	H510	0.175100	0.435900	0.716600
H5111	H511	0.661100	0.686000	0.623600
H5121	H512	0.714400	0.689600	0.652400
H5131	H513	0.745400	0.783000	0.720500
H5141	H514	0.710000	0.829400	0.734900
C1811	C181	0.705200	0.805700	0.668300
H5151	H515	0.723400	0.815200	0.661100
H5161	H516	0.690400	0.806800	0.652500
N311	N31	0.665420	0.893910	0.726150
C1821	C182	0.711600	0.773000	0.675800
H5171	H517	0.698800	0.760200	0.663900
H5181	H518	0.732200	0.768300	0.670900
C1831	C183	0.618600	0.856800	0.655300
H5191	H519	0.611000	0.866600	0.673100
H5201	H520	0.623500	0.836300	0.660600
H5211	H521	0.629000	0.913400	0.653800
C1841	C184	0.640100	0.877200	0.735400
H5221	H522	0.645800	0.856500	0.738600
H5231	H523	0.625000	0.877800	0.719900
C1851	C185	0.687600	0.893800	0.750500
H5241	H524	0.705100	0.905100	0.744500
H5251	H525	0.693800	0.873400	0.754700
C1861	C186	0.657400	0.924500	0.722000
H5261	H526	0.643200	0.926000	0.705600
H5271	H527	0.675100	0.935900	0.716600
H5281	H528	0.661100	0.186000	0.123600
H5291	H529	0.714400	0.189600	0.152400
H5301	H530	0.745400	0.283000	0.220500
H5311	H531	0.710000	0.329400	0.234900
C1871	C187	0.705200	0.305700	0.168300
H5321	H532	0.723400	0.315200	0.161100
H5331	H533	0.690400	0.306800	0.152500
N321	N32	0.665420	0.393910	0.226150
C1881	C188	0.711600	0.273000	0.175800
H5341	H534	0.698800	0.260200	0.163900
H5351	H535	0.732200	0.268300	0.170900
C1891	C189	0.618600	0.356800	0.155300
H5361	H536	0.611000	0.366600	0.173100
H5371	H537	0.623500	0.336300	0.160600
H5381	H538	0.629000	0.413400	0.153800
C1901	C190	0.640100	0.377200	0.235400
H5391	H539	0.645800	0.356500	0.238600
H5401	H540	0.625000	0.377800	0.219900
C1911	C191	0.687600	0.393800	0.250500
H5411	H541	0.705100	0.405100	0.244500
H5421	H542	0.693800	0.373400	0.254700
C1921	C192	0.657400	0.424500	0.222000
H5431	H543	0.643200	0.426000	0.205600
H5441	H544	0.675100	0.435900	0.216600
H5451	H545	0.626400	0.088900	0.186000
H5461	H546	0.597600	0.035600	0.189600
H5471	H547	0.529500	0.004600	0.283000
H5481	H548	0.515100	0.040000	0.329400
C1931	C193	0.581700	0.044800	0.305700
H5491	H549	0.588900	0.026600	0.315200
H5501	H550	0.597500	0.059600	0.306800
N331	N33	0.523850	0.084580	0.393910
C1941	C194	0.574200	0.038400	0.273000
H5511	H551	0.586100	0.051200	0.260200
H5521	H552	0.579100	0.017800	0.268300
C1951	C195	0.594700	0.131400	0.356800
H5531	H553	0.576900	0.139000	0.366600
H5541	H554	0.589400	0.126500	0.336300
H5551	H555	0.596200	0.121000	0.413400
C1961	C196	0.514600	0.109900	0.377200
H5561	H556	0.511400	0.104200	0.356500
H5571	H557	0.530100	0.125000	0.377800
C1971	C197	0.499500	0.062400	0.393800
H5581	H558	0.505500	0.044900	0.405100
H5591	H559	0.495300	0.056200	0.373400
C1981	C198	0.528000	0.092600	0.424500
H5601	H560	0.544400	0.106800	0.426000
H5611	H561	0.533400	0.074900	0.435900
H5621	H562	0.626400	0.588900	0.686000
H5631	H563	0.597600	0.535600	0.689600
H5641	H564	0.529500	0.504600	0.783000
H5651	H565	0.515100	0.540000	0.829400
C1991	C199	0.581700	0.544800	0.805700
H5661	H566	0.588900	0.526600	0.815200
H5671	H567	0.597500	0.559600	0.806800
N341	N34	0.523850	0.584580	0.893910
C2001	C200	0.574200	0.538400	0.773000
H5681	H568	0.586100	0.551200	0.760200
H5691	H569	0.579100	0.517800	0.768300
C2011	C201	0.594700	0.631400	0.856800
H5701	H570	0.576900	0.639000	0.866600
H5711	H571	0.589400	0.626500	0.836300
H5721	H572	0.596200	0.621000	0.913400
C2021	C202	0.514600	0.609900	0.877200
H5731	H573	0.511400	0.604200	0.856500
H5741	H574	0.530100	0.625000	0.877800
C2031	C203	0.499500	0.562400	0.893800
H5751	H575	0.505500	0.544900	0.905100
H5761	H576	0.495300	0.556200	0.873400
C2041	C204	0.528000	0.592600	0.924500
H5771	H577	0.544400	0.606800	0.926000
H5781	H578	0.533400	0.574900	0.935900
H5791	H579	0.126400	0.088900	0.686000
H5801	H580	0.097600	0.035600	0.689600
H5811	H581	0.029500	0.004600	0.783000
H5821	H582	0.015100	0.040000	0.829400
C2051	C205	0.081700	0.044800	0.805700
H5831	H583	0.088900	0.026600	0.815200
H5841	H584	0.097500	0.059600	0.806800
N351	N35	0.023850	0.084580	0.893910
C2061	C206	0.074200	0.038400	0.773000
H5851	H585	0.086100	0.051200	0.760200
H5861	H586	0.079100	0.017800	0.768300
C2071	C207	0.094700	0.131400	0.856800
H5871	H587	0.076900	0.139000	0.866600
H5881	H588	0.089400	0.126500	0.836300
H5891	H589	0.096200	0.121000	0.913400
C2081	C208	0.014600	0.109900	0.877200
H5901	H590	0.011400	0.104200	0.856500
H5911	H591	0.030100	0.125000	0.877800
C2091	C209	0.999500	0.062400	0.893800
H5921	H592	0.005500	0.044900	0.905100
H5931	H593	0.995300	0.056200	0.873400
C2101	C210	0.028000	0.092600	0.924500
H5941	H594	0.044400	0.106800	0.926000
H5951	H595	0.033400	0.074900	0.935900
H5961	H596	0.126400	0.588900	0.186000
H5971	H597	0.097600	0.535600	0.189600
H5981	H598	0.029500	0.504600	0.283000
H5991	H599	0.015100	0.540000	0.329400
C2111	C211	0.081700	0.544800	0.305700
H6001	H600	0.088900	0.526600	0.315200
H6011	H601	0.097500	0.559600	0.306800
N361	N36	0.023850	0.584580	0.393910
C2121	C212	0.074200	0.538400	0.273000
H6021	H602	0.086100	0.551200	0.260200
H6031	H603	0.079100	0.517800	0.268300
C2131	C213	0.094700	0.631400	0.356800
H6041	H604	0.076900	0.639000	0.366600
H6051	H605	0.089400	0.626500	0.336300
H6061	H606	0.096200	0.621000	0.413400
C2141	C214	0.014600	0.609900	0.377200
H6071	H607	0.011400	0.604200	0.356500
H6081	H608	0.030100	0.625000	0.377800
C2151	C215	0.999500	0.562400	0.393800
H6091	H609	0.005500	0.544900	0.405100
H6101	H610	0.995300	0.556200	0.373400
C2161	C216	0.028000	0.592600	0.424500
H6111	H611	0.044400	0.606800	0.426000
H6121	H612	0.033400	0.574900	0.435900
H6131	H613	0.623600	0.588900	0.564000
H6141	H614	0.652400	0.535600	0.560400
H6151	H615	0.720500	0.504600	0.467000
H6161	H616	0.734900	0.540000	0.420600
C2171	C217	0.668300	0.544800	0.444300
H6171	H617	0.661100	0.526600	0.434800
H6181	H618	0.652500	0.559600	0.443200
N371	N37	0.726150	0.584580	0.356090
C2181	C218	0.675800	0.538400	0.477000
H6191	H619	0.663900	0.551200	0.489800
H6201	H620	0.670900	0.517800	0.481700
C2191	C219	0.655300	0.631400	0.393200
H6211	H621	0.673100	0.639000	0.383400
H6221	H622	0.660600	0.626500	0.413700
H6231	H623	0.653800	0.621000	0.336600
C2201	C220	0.735400	0.609900	0.372800
H6241	H624	0.738600	0.604200	0.393500
H6251	H625	0.719900	0.625000	0.372200
C2211	C221	0.750500	0.562400	0.356200
H6261	H626	0.744500	0.544900	0.344900
H6271	H627	0.754700	0.556200	0.376600
C2221	C222	0.722000	0.592600	0.325500
H6281	H628	0.705600	0.606800	0.324000
H6291	H629	0.716600	0.574900	0.314100
H6301	H630	0.623600	0.088900	0.064000
H6311	H631	0.652400	0.035600	0.060400
H6321	H632	0.720500	0.004600	0.967000
H6331	H633	0.734900	0.040000	0.920600
C2231	C223	0.668300	0.044800	0.944300
H6341	H634	0.661100	0.026600	0.934800
H6351	H635	0.652500	0.059600	0.943200
N381	N38	0.726150	0.084580	0.856090
C2241	C224	0.675800	0.038400	0.977000
H6361	H636	0.663900	0.051200	0.989800
H6371	H637	0.670900	0.017800	0.981700
C2251	C225	0.655300	0.131400	0.893200
H6381	H638	0.673100	0.139000	0.883400
H6391	H639	0.660600	0.126500	0.913700
H6401	H640	0.653800	0.121000	0.836600
C2261	C226	0.735400	0.109900	0.872800
H6411	H641	0.738600	0.104200	0.893500
H6421	H642	0.719900	0.125000	0.872200
C2271	C227	0.750500	0.062400	0.856200
H6431	H643	0.744500	0.044900	0.844900
H6441	H644	0.754700	0.056200	0.876600
C2281	C228	0.722000	0.092600	0.825500
H6451	H645	0.705600	0.106800	0.824000
H6461	H646	0.716600	0.074900	0.814100
H6471	H647	0.123600	0.588900	0.064000
H6481	H648	0.152400	0.535600	0.060400
H6491	H649	0.220500	0.504600	0.967000
H6501	H650	0.234900	0.540000	0.920600
C2291	C229	0.168300	0.544800	0.944300
H6511	H651	0.161100	0.526600	0.934800
H6521	H652	0.152500	0.559600	0.943200
N391	N39	0.226150	0.584580	0.856090
C2301	C230	0.175800	0.538400	0.977000
H6531	H653	0.163900	0.551200	0.989800
H6541	H654	0.170900	0.517800	0.981700
C2311	C231	0.155300	0.631400	0.893200
H6551	H655	0.173100	0.639000	0.883400
H6561	H656	0.160600	0.626500	0.913700
H6571	H657	0.153800	0.621000	0.836600
C2321	C232	0.235400	0.609900	0.872800
H6581	H658	0.238600	0.604200	0.893500
H6591	H659	0.219900	0.625000	0.872200
C2331	C233	0.250500	0.562400	0.856200
H6601	H660	0.244500	0.544900	0.844900
H6611	H661	0.254700	0.556200	0.876600
C2341	C234	0.222000	0.592600	0.825500
H6621	H662	0.205600	0.606800	0.824000
H6631	H663	0.216600	0.574900	0.814100
H6641	H664	0.123600	0.088900	0.564000
H6651	H665	0.152400	0.035600	0.560400
H6661	H666	0.220500	0.004600	0.467000
H6671	H667	0.234900	0.040000	0.420600
C2351	C235	0.168300	0.044800	0.444300
H6681	H668	0.161100	0.026600	0.434800
H6691	H669	0.152500	0.059600	0.443200
N401	N40	0.226150	0.084580	0.356090
C2361	C236	0.175800	0.038400	0.477000
H6701	H670	0.163900	0.051200	0.489800
H6711	H671	0.170900	0.017800	0.481700
C2371	C237	0.155300	0.131400	0.393200
H6721	H672	0.173100	0.139000	0.383400
H6731	H673	0.160600	0.126500	0.413700
H6741	H674	0.153800	0.121000	0.336600
C2381	C238	0.235400	0.109900	0.372800
H6751	H675	0.238600	0.104200	0.393500
H6761	H676	0.219900	0.125000	0.372200
C2391	C239	0.250500	0.062400	0.356200
H6771	H677	0.244500	0.044900	0.344900
H6781	H678	0.254700	0.056200	0.376600
C2401	C240	0.222000	0.092600	0.325500
H6791	H679	0.205600	0.106800	0.324000
H6801	H680	0.216600	0.074900	0.314100
H6811	H681	0.126400	0.661100	0.064000
H6821	H682	0.097600	0.714400	0.060400
H6831	H683	0.029500	0.745400	0.967000
H6841	H684	0.015100	0.710000	0.920600
C2411	C241	0.081700	0.705200	0.944300
H6851	H685	0.088900	0.723400	0.934800
H6861	H686	0.097500	0.690400	0.943200
N411	N41	0.023850	0.665420	0.856090
C2421	C242	0.074200	0.711600	0.977000
H6871	H687	0.086100	0.698800	0.989800
H6881	H688	0.079100	0.732200	0.981700
C2431	C243	0.094700	0.618600	0.893200
H6891	H689	0.076900	0.611000	0.883400
H6901	H690	0.089400	0.623500	0.913700
H6911	H691	0.096200	0.629000	0.836600
C2441	C244	0.014600	0.640100	0.872800
H6921	H692	0.011400	0.645800	0.893500
H6931	H693	0.030100	0.625000	0.872200
C2451	C245	0.999500	0.687600	0.856200
H6941	H694	0.005500	0.705100	0.844900
H6951	H695	0.995300	0.693800	0.876600
C2461	C246	0.028000	0.657400	0.825500
H6961	H696	0.044400	0.643200	0.824000
H6971	H697	0.033400	0.675100	0.814100
H6981	H698	0.126400	0.161100	0.564000
H6991	H699	0.097600	0.214400	0.560400
H7001	H700	0.029500	0.245400	0.467000
H7011	H701	0.015100	0.210000	0.420600
C2471	C247	0.081700	0.205200	0.444300
H7021	H702	0.088900	0.223400	0.434800
H7031	H703	0.097500	0.190400	0.443200
N421	N42	0.023850	0.165420	0.356090
C2481	C248	0.074200	0.211600	0.477000
H7041	H704	0.086100	0.198800	0.489800
H7051	H705	0.079100	0.232200	0.481700
C2491	C249	0.094700	0.118600	0.393200
H7061	H706	0.076900	0.111000	0.383400
H7071	H707	0.089400	0.123500	0.413700
H7081	H708	0.096200	0.129000	0.336600
C2501	C250	0.014600	0.140100	0.372800
H7091	H709	0.011400	0.145800	0.393500
H7101	H710	0.030100	0.125000	0.372200
C2511	C251	0.999500	0.187600	0.356200
H7111	H711	0.005500	0.205100	0.344900
H7121	H712	0.995300	0.193800	0.376600
C2521	C252	0.028000	0.157400	0.325500
H7131	H713	0.044400	0.143200	0.324000
H7141	H714	0.033400	0.175100	0.314100
H7151	H715	0.626400	0.661100	0.564000
H7161	H716	0.597600	0.714400	0.560400
H7171	H717	0.529500	0.745400	0.467000
H7181	H718	0.515100	0.710000	0.420600
C2531	C253	0.581700	0.705200	0.444300
H7191	H719	0.588900	0.723400	0.434800
H7201	H720	0.597500	0.690400	0.443200
N431	N43	0.523850	0.665420	0.356090
C2541	C254	0.574200	0.711600	0.477000
H7211	H721	0.586100	0.698800	0.489800
H7221	H722	0.579100	0.732200	0.481700
C2551	C255	0.594700	0.618600	0.393200
H7231	H723	0.576900	0.611000	0.383400
H7241	H724	0.589400	0.623500	0.413700
H7251	H725	0.596200	0.629000	0.336600
C2561	C256	0.514600	0.640100	0.372800
H7261	H726	0.511400	0.645800	0.393500
H7271	H727	0.530100	0.625000	0.372200
C2571	C257	0.499500	0.687600	0.356200
H7281	H728	0.505500	0.705100	0.344900
H7291	H729	0.495300	0.693800	0.376600
C2581	C258	0.528000	0.657400	0.325500
H7301	H730	0.544400	0.643200	0.324000
H7311	H731	0.533400	0.675100	0.314100
H7321	H732	0.626400	0.161100	0.064000
H7331	H733	0.597600	0.214400	0.060400
H7341	H734	0.529500	0.245400	0.967000
H7351	H735	0.515100	0.210000	0.920600
C2591	C259	0.581700	0.205200	0.944300
H7361	H736	0.588900	0.223400	0.934800
H7371	H737	0.597500	0.190400	0.943200
N441	N44	0.523850	0.165420	0.856090
C2601	C260	0.574200	0.211600	0.977000
H7381	H738	0.586100	0.198800	0.989800
H7391	H739	0.579100	0.232200	0.981700
C2611	C261	0.594700	0.118600	0.893200
H7401	H740	0.576900	0.111000	0.883400
H7411	H741	0.589400	0.123500	0.913700
H7421	H742	0.596200	0.129000	0.836600
C2621	C262	0.514600	0.140100	0.872800
H7431	H743	0.511400	0.145800	0.893500
H7441	H744	0.530100	0.125000	0.872200
C2631	C263	0.499500	0.187600	0.856200
H7451	H745	0.505500	0.205100	0.844900
H7461	H746	0.495300	0.193800	0.876600
C2641	C264	0.528000	0.157400	0.825500
H7471	H747	0.544400	0.143200	0.824000
H7481	H748	0.533400	0.175100	0.814100
H7491	H749	0.123600	0.161100	0.686000
H7501	H750	0.152400	0.214400	0.689600
H7511	H751	0.220500	0.245400	0.783000
H7521	H752	0.234900	0.210000	0.829400
C2651	C265	0.168300	0.205200	0.805700
H7531	H753	0.161100	0.223400	0.815200
H7541	H754	0.152500	0.190400	0.806800
N451	N45	0.226150	0.165420	0.893910
C2661	C266	0.175800	0.211600	0.773000
H7551	H755	0.163900	0.198800	0.760200
H7561	H756	0.170900	0.232200	0.768300
C2671	C267	0.155300	0.118600	0.856800
H7571	H757	0.173100	0.111000	0.866600
H7581	H758	0.160600	0.123500	0.836300
H7591	H759	0.153800	0.129000	0.913400
C2681	C268	0.235400	0.140100	0.877200
H7601	H760	0.238600	0.145800	0.856500
H7611	H761	0.219900	0.125000	0.877800
C2691	C269	0.250500	0.187600	0.893800
H7621	H762	0.244500	0.205100	0.905100
H7631	H763	0.254700	0.193800	0.873400
C2701	C270	0.222000	0.157400	0.924500
H7641	H764	0.205600	0.143200	0.926000
H7651	H765	0.216600	0.175100	0.935900
H7661	H766	0.123600	0.661100	0.186000
H7671	H767	0.152400	0.714400	0.189600
H7681	H768	0.220500	0.745400	0.283000
H7691	H769	0.234900	0.710000	0.329400
C2711	C271	0.168300	0.705200	0.305700
H7701	H770	0.161100	0.723400	0.315200
H7711	H771	0.152500	0.690400	0.306800
N461	N46	0.226150	0.665420	0.393910
C2721	C272	0.175800	0.711600	0.273000
H7721	H772	0.163900	0.698800	0.260200
H7731	H773	0.170900	0.732200	0.268300
C2731	C273	0.155300	0.618600	0.356800
H7741	H774	0.173100	0.611000	0.366600
H7751	H775	0.160600	0.623500	0.336300
H7761	H776	0.153800	0.629000	0.413400
C2741	C274	0.235400	0.640100	0.377200
H7771	H777	0.238600	0.645800	0.356500
H7781	H778	0.219900	0.625000	0.377800
C2751	C275	0.250500	0.687600	0.393800
H7791	H779	0.244500	0.705100	0.405100
H7801	H780	0.254700	0.693800	0.373400
C2761	C276	0.222000	0.657400	0.424500
H7811	H781	0.205600	0.643200	0.426000
H7821	H782	0.216600	0.675100	0.435900
H7831	H783	0.623600	0.161100	0.186000
H7841	H784	0.652400	0.214400	0.189600
H7851	H785	0.720500	0.245400	0.283000
H7861	H786	0.734900	0.210000	0.329400
C2771	C277	0.668300	0.205200	0.305700
H7871	H787	0.661100	0.223400	0.315200
H7881	H788	0.652500	0.190400	0.306800
N471	N47	0.726150	0.165420	0.393910
C2781	C278	0.675800	0.211600	0.273000
H7891	H789	0.663900	0.198800	0.260200
H7901	H790	0.670900	0.232200	0.268300
C2791	C279	0.655300	0.118600	0.356800
H7911	H791	0.673100	0.111000	0.366600
H7921	H792	0.660600	0.123500	0.336300
H7931	H793	0.653800	0.129000	0.413400
C2801	C280	0.735400	0.140100	0.377200
H7941	H794	0.738600	0.145800	0.356500
H7951	H795	0.719900	0.125000	0.377800
C2811	C281	0.750500	0.187600	0.393800
H7961	H796	0.744500	0.205100	0.405100
H7971	H797	0.754700	0.193800	0.373400
C2821	C282	0.722000	0.157400	0.424500
H7981	H798	0.705600	0.143200	0.426000
H7991	H799	0.716600	0.175100	0.435900
H8001	H800	0.623600	0.661100	0.686000
H8011	H801	0.652400	0.714400	0.689600
H8021	H802	0.720500	0.745400	0.783000
H8031	H803	0.734900	0.710000	0.829400
C2831	C283	0.668300	0.705200	0.805700
H8041	H804	0.661100	0.723400	0.815200
H8051	H805	0.652500	0.690400	0.806800
N481	N48	0.726150	0.665420	0.893910
C2841	C284	0.675800	0.711600	0.773000
H8061	H806	0.663900	0.698800	0.760200
H8071	H807	0.670900	0.732200	0.768300
C2851	C285	0.655300	0.618600	0.856800
H8081	H808	0.673100	0.611000	0.866600
H8091	H809	0.660600	0.623500	0.836300
H8101	H810	0.653800	0.629000	0.913400
C2861	C286	0.735400	0.640100	0.877200
H8111	H811	0.738600	0.645800	0.856500
H8121	H812	0.719900	0.625000	0.877800
C2871	C287	0.750500	0.687600	0.893800
H8131	H813	0.744500	0.705100	0.905100
H8141	H814	0.754700	0.693800	0.873400
C2881	C288	0.722000	0.657400	0.924500
H8151	H815	0.705600	0.643200	0.926000
H8161	H816	0.716600	0.675100	0.935900
H8171	H817	0.376400	0.436000	0.411100
H8181	H818	0.347600	0.439600	0.464400
H8191	H819	0.279500	0.533000	0.495400
H8201	H820	0.265100	0.579400	0.460000
C2891	C289	0.331700	0.555700	0.455200
H8211	H821	0.338900	0.565200	0.473400
H8221	H822	0.347500	0.556800	0.440400
N491	N49	0.273850	0.643910	0.415420
C2901	C290	0.324200	0.523000	0.461600
H8231	H823	0.336100	0.510200	0.448800
H8241	H824	0.329100	0.518300	0.482200
C2911	C291	0.344700	0.606800	0.368600
H8251	H825	0.326900	0.616600	0.361000
H8261	H826	0.339400	0.586300	0.373500
H8271	H827	0.346200	0.663400	0.379000
C2921	C292	0.264600	0.627200	0.390100
H8281	H828	0.261400	0.606500	0.395800
H8291	H829	0.280100	0.627800	0.375000
C2931	C293	0.249500	0.643800	0.437600
H8301	H830	0.255500	0.655100	0.455100
H8311	H831	0.245300	0.623400	0.443800
C2941	C294	0.278000	0.674500	0.407400
H8321	H832	0.294400	0.676000	0.393200
H8331	H833	0.283400	0.685900	0.425100
H8341	H834	0.376400	0.936000	0.911100
H8351	H835	0.347600	0.939600	0.964400
H8361	H836	0.279500	0.033000	0.995400
H8371	H837	0.265100	0.079400	0.960000
C2951	C295	0.331700	0.055700	0.955200
H8381	H838	0.338900	0.065200	0.973400
H8391	H839	0.347500	0.056800	0.940400
N501	N50	0.273850	0.143910	0.915420
C2961	C296	0.324200	0.023000	0.961600
H8401	H840	0.336100	0.010200	0.948800
H8411	H841	0.329100	0.018300	0.982200
C2971	C297	0.344700	0.106800	0.868600
H8421	H842	0.326900	0.116600	0.861000
H8431	H843	0.339400	0.086300	0.873500
H8441	H844	0.346200	0.163400	0.879000
C2981	C298	0.264600	0.127200	0.890100
H8451	H845	0.261400	0.106500	0.895800
H8461	H846	0.280100	0.127800	0.875000
C2991	C299	0.249500	0.143800	0.937600
H8471	H847	0.255500	0.155100	0.955100
H8481	H848	0.245300	0.123400	0.943800
C3001	C300	0.278000	0.174500	0.907400
H8491	H849	0.294400	0.176000	0.893200
H8501	H850	0.283400	0.185900	0.925100
H8511	H851	0.876400	0.436000	0.911100
H8521	H852	0.847600	0.439600	0.964400
H8531	H853	0.779500	0.533000	0.995400
H8541	H854	0.765100	0.579400	0.960000
C3011	C301	0.831700	0.555700	0.955200
H8551	H855	0.838900	0.565200	0.973400
H8561	H856	0.847500	0.556800	0.940400
N511	N51	0.773850	0.643910	0.915420
C3021	C302	0.824200	0.523000	0.961600
H8571	H857	0.836100	0.510200	0.948800
H8581	H858	0.829100	0.518300	0.982200
C3031	C303	0.844700	0.606800	0.868600
H8591	H859	0.826900	0.616600	0.861000
H8601	H860	0.839400	0.586300	0.873500
H8611	H861	0.846200	0.663400	0.879000
C3041	C304	0.764600	0.627200	0.890100
H8621	H862	0.761400	0.606500	0.895800
H8631	H863	0.780100	0.627800	0.875000
C3051	C305	0.749500	0.643800	0.937600
H8641	H864	0.755500	0.655100	0.955100
H8651	H865	0.745300	0.623400	0.943800
C3061	C306	0.778000	0.674500	0.907400
H8661	H866	0.794400	0.676000	0.893200
H8671	H867	0.783400	0.685900	0.925100
H8681	H868	0.876400	0.936000	0.411100
H8691	H869	0.847600	0.939600	0.464400
H8701	H870	0.779500	0.033000	0.495400
H8711	H871	0.765100	0.079400	0.460000
C3071	C307	0.831700	0.055700	0.455200
H8721	H872	0.838900	0.065200	0.473400
H8731	H873	0.847500	0.056800	0.440400
N521	N52	0.773850	0.143910	0.415420
C3081	C308	0.824200	0.023000	0.461600
H8741	H874	0.836100	0.010200	0.448800
H8751	H875	0.829100	0.018300	0.482200
C3091	C309	0.844700	0.106800	0.368600
H8761	H876	0.826900	0.116600	0.361000
H8771	H877	0.839400	0.086300	0.373500
H8781	H878	0.846200	0.163400	0.379000
C3101	C310	0.764600	0.127200	0.390100
H8791	H879	0.761400	0.106500	0.395800
H8801	H880	0.780100	0.127800	0.375000
C3111	C311	0.749500	0.143800	0.437600
H8811	H881	0.755500	0.155100	0.455100
H8821	H882	0.745300	0.123400	0.443800
C3121	C312	0.778000	0.174500	0.407400
H8831	H883	0.794400	0.176000	0.393200
H8841	H884	0.783400	0.185900	0.425100
H8851	H885	0.373600	0.814000	0.911100
H8861	H886	0.402400	0.810400	0.964400
H8871	H887	0.470500	0.717000	0.995400
H8881	H888	0.484900	0.670600	0.960000
C3131	C313	0.418300	0.694300	0.955200
H8891	H889	0.411100	0.684800	0.973400
H8901	H890	0.402500	0.693200	0.940400
N531	N53	0.476150	0.606090	0.915420
C3141	C314	0.425800	0.727000	0.961600
H8911	H891	0.413900	0.739800	0.948800
H8921	H892	0.420900	0.731700	0.982200
C3151	C315	0.405300	0.643200	0.868600
H8931	H893	0.423100	0.633400	0.861000
H8941	H894	0.410600	0.663700	0.873500
H8951	H895	0.403800	0.586600	0.879000
C3161	C316	0.485400	0.622800	0.890100
H8961	H896	0.488600	0.643500	0.895800
H8971	H897	0.469900	0.622200	0.875000
C3171	C317	0.500500	0.606200	0.937600
H8981	H898	0.494500	0.594900	0.955100
H8991	H899	0.504700	0.626600	0.943800
C3181	C318	0.472000	0.575500	0.907400
H9001	H900	0.455600	0.574000	0.893200
H9011	H901	0.466600	0.564100	0.925100
H9021	H902	0.373600	0.314000	0.411100
H9031	H903	0.402400	0.310400	0.464400
H9041	H904	0.470500	0.217000	0.495400
H9051	H905	0.484900	0.170600	0.460000
C3191	C319	0.418300	0.194300	0.455200
H9061	H906	0.411100	0.184800	0.473400
H9071	H907	0.402500	0.193200	0.440400
N541	N54	0.476150	0.106090	0.415420
C3201	C320	0.425800	0.227000	0.461600
H9081	H908	0.413900	0.239800	0.448800
H9091	H909	0.420900	0.231700	0.482200
C3211	C321	0.405300	0.143200	0.368600
H9101	H910	0.423100	0.133400	0.361000
H9111	H911	0.410600	0.163700	0.373500
H9121	H912	0.403800	0.086600	0.379000
C3221	C322	0.485400	0.122800	0.390100
H9131	H913	0.488600	0.143500	0.395800
H9141	H914	0.469900	0.122200	0.375000
C3231	C323	0.500500	0.106200	0.437600
H9151	H915	0.494500	0.094900	0.455100
H9161	H916	0.504700	0.126600	0.443800
C3241	C324	0.472000	0.075500	0.407400
H9171	H917	0.455600	0.074000	0.393200
H9181	H918	0.466600	0.064100	0.425100
H9191	H919	0.873600	0.814000	0.411100
H9201	H920	0.902400	0.810400	0.464400
H9211	H921	0.970500	0.717000	0.495400
H9221	H922	0.984900	0.670600	0.460000
C3251	C325	0.918300	0.694300	0.455200
H9231	H923	0.911100	0.684800	0.473400
H9241	H924	0.902500	0.693200	0.440400
N551	N55	0.976150	0.606090	0.415420
C3261	C326	0.925800	0.727000	0.461600
H9251	H925	0.913900	0.739800	0.448800
H9261	H926	0.920900	0.731700	0.482200
C3271	C327	0.905300	0.643200	0.368600
H9271	H927	0.923100	0.633400	0.361000
H9281	H928	0.910600	0.663700	0.373500
H9291	H929	0.903800	0.586600	0.379000
C3281	C328	0.985400	0.622800	0.390100
H9301	H930	0.988600	0.643500	0.395800
H9311	H931	0.969900	0.622200	0.375000
C3291	C329	0.000500	0.606200	0.437600
H9321	H932	0.994500	0.594900	0.455100
H9331	H933	0.004700	0.626600	0.443800
C3301	C330	0.972000	0.575500	0.407400
H9341	H934	0.955600	0.574000	0.393200
H9351	H935	0.966600	0.564100	0.425100
H9361	H936	0.873600	0.314000	0.911100
H9371	H937	0.902400	0.310400	0.964400
H9381	H938	0.970500	0.217000	0.995400
H9391	H939	0.984900	0.170600	0.960000
C3311	C331	0.918300	0.194300	0.955200
H9401	H940	0.911100	0.184800	0.973400
H9411	H941	0.902500	0.193200	0.940400
N561	N56	0.976150	0.106090	0.915420
C3321	C332	0.925800	0.227000	0.961600
H9421	H942	0.913900	0.239800	0.948800
H9431	H943	0.920900	0.231700	0.982200
C3331	C333	0.905300	0.143200	0.868600
H9441	H944	0.923100	0.133400	0.861000
H9451	H945	0.910600	0.163700	0.873500
H9461	H946	0.903800	0.086600	0.879000
C3341	C334	0.985400	0.122800	0.890100
H9471	H947	0.988600	0.143500	0.895800
H9481	H948	0.969900	0.122200	0.875000
C3351	C335	0.000500	0.106200	0.937600
H9491	H949	0.994500	0.094900	0.955100
H9501	H950	0.004700	0.126600	0.943800
C3361	C336	0.972000	0.075500	0.907400
H9511	H951	0.955600	0.074000	0.893200
H9521	H952	0.966600	0.064100	0.925100
H9531	H953	0.876400	0.314000	0.838900
H9541	H954	0.847600	0.310400	0.785600
H9551	H955	0.779500	0.217000	0.754600
H9561	H956	0.765100	0.170600	0.790000
C3371	C337	0.831700	0.194300	0.794800
H9571	H957	0.838900	0.184800	0.776600
H9581	H958	0.847500	0.193200	0.809600
N571	N57	0.773850	0.106090	0.834580
C3381	C338	0.824200	0.227000	0.788400
H9591	H959	0.836100	0.239800	0.801200
H9601	H960	0.829100	0.231700	0.767800
C3391	C339	0.844700	0.143200	0.881400
H9611	H961	0.826900	0.133400	0.889000
H9621	H962	0.839400	0.163700	0.876500
H9631	H963	0.846200	0.086600	0.871000
C3401	C340	0.764600	0.122800	0.859900
H9641	H964	0.761400	0.143500	0.854200
H9651	H965	0.780100	0.122200	0.875000
C3411	C341	0.749500	0.106200	0.812400
H9661	H966	0.755500	0.094900	0.794900
H9671	H967	0.745300	0.126600	0.806200
C3421	C342	0.778000	0.075500	0.842600
H9681	H968	0.794400	0.074000	0.856800
H9691	H969	0.783400	0.064100	0.824900
H9701	H970	0.876400	0.814000	0.338900
H9711	H971	0.847600	0.810400	0.285600
H9721	H972	0.779500	0.717000	0.254600
H9731	H973	0.765100	0.670600	0.290000
C3431	C343	0.831700	0.694300	0.294800
H9741	H974	0.838900	0.684800	0.276600
H9751	H975	0.847500	0.693200	0.309600
N581	N58	0.773850	0.606090	0.334580
C3441	C344	0.824200	0.727000	0.288400
H9761	H976	0.836100	0.739800	0.301200
H9771	H977	0.829100	0.731700	0.267800
C3451	C345	0.844700	0.643200	0.381400
H9781	H978	0.826900	0.633400	0.389000
H9791	H979	0.839400	0.663700	0.376500
H9801	H980	0.846200	0.586600	0.371000
C3461	C346	0.764600	0.622800	0.359900
H9811	H981	0.761400	0.643500	0.354200
H9821	H982	0.780100	0.622200	0.375000
C3471	C347	0.749500	0.606200	0.312400
H9831	H983	0.755500	0.594900	0.294900
H9841	H984	0.745300	0.626600	0.306200
C3481	C348	0.778000	0.575500	0.342600
H9851	H985	0.794400	0.574000	0.356800
H9861	H986	0.783400	0.564100	0.324900
H9871	H987	0.376400	0.314000	0.338900
H9881	H988	0.347600	0.310400	0.285600
H9891	H989	0.279500	0.217000	0.254600
H9901	H990	0.265100	0.170600	0.290000
C3491	C349	0.331700	0.194300	0.294800
H9911	H991	0.338900	0.184800	0.276600
H9921	H992	0.347500	0.193200	0.309600
N591	N59	0.273850	0.106090	0.334580
C3501	C350	0.324200	0.227000	0.288400
H9931	H993	0.336100	0.239800	0.301200
H9941	H994	0.329100	0.231700	0.267800
C3511	C351	0.344700	0.143200	0.381400
H9951	H995	0.326900	0.133400	0.389000
H9961	H996	0.339400	0.163700	0.376500
H9971	H997	0.346200	0.086600	0.371000
C3521	C352	0.264600	0.122800	0.359900
H9981	H998	0.261400	0.143500	0.354200
H9991	H999	0.280100	0.122200	0.375000
C3531	C353	0.249500	0.106200	0.312400
H10001	H1000	0.255500	0.094900	0.294900
H10011	H1001	0.245300	0.126600	0.306200
C3541	C354	0.278000	0.075500	0.342600
H10021	H1002	0.294400	0.074000	0.356800
H10031	H1003	0.283400	0.064100	0.324900
H10041	H1004	0.376400	0.814000	0.838900
H10051	H1005	0.347600	0.810400	0.785600
H10061	H1006	0.279500	0.717000	0.754600
H10071	H1007	0.265100	0.670600	0.790000
C3551	C355	0.331700	0.694300	0.794800
H10081	H1008	0.338900	0.684800	0.776600
H10091	H1009	0.347500	0.693200	0.809600
N601	N60	0.273850	0.606090	0.834580
C3561	C356	0.324200	0.727000	0.788400
H10101	H1010	0.336100	0.739800	0.801200
H10111	H1011	0.329100	0.731700	0.767800
C3571	C357	0.344700	0.643200	0.881400
H10121	H1012	0.326900	0.633400	0.889000
H10131	H1013	0.339400	0.663700	0.876500
H10141	H1014	0.346200	0.586600	0.871000
C3581	C358	0.264600	0.622800	0.859900
H10151	H1015	0.261400	0.643500	0.854200
H10161	H1016	0.280100	0.622200	0.875000
C3591	C359	0.249500	0.606200	0.812400
H10171	H1017	0.255500	0.594900	0.794900
H10181	H1018	0.245300	0.626600	0.806200
C3601	C360	0.278000	0.575500	0.842600
H10191	H1019	0.294400	0.574000	0.856800
H10201	H1020	0.283400	0.564100	0.824900
H10211	H1021	0.873600	0.936000	0.338900
H10221	H1022	0.902400	0.939600	0.285600
H10231	H1023	0.970500	0.033000	0.254600
H10241	H1024	0.984900	0.079400	0.290000
C3611	C361	0.918300	0.055700	0.294800
H10251	H1025	0.911100	0.065200	0.276600
H10261	H1026	0.902500	0.056800	0.309600
N611	N61	0.976150	0.143910	0.334580
C3621	C362	0.925800	0.023000	0.288400
H10271	H1027	0.913900	0.010200	0.301200
H10281	H1028	0.920900	0.018300	0.267800
C3631	C363	0.905300	0.106800	0.381400
H10291	H1029	0.923100	0.116600	0.389000
H10301	H1030	0.910600	0.086300	0.376500
H10311	H1031	0.903800	0.163400	0.371000
C3641	C364	0.985400	0.127200	0.359900
H10321	H1032	0.988600	0.106500	0.354200
H10331	H1033	0.969900	0.127800	0.375000
C3651	C365	0.000500	0.143800	0.312400
H10341	H1034	0.994500	0.155100	0.294900
H10351	H1035	0.004700	0.123400	0.306200
C3661	C366	0.972000	0.174500	0.342600
H10361	H1036	0.955600	0.176000	0.356800
H10371	H1037	0.966600	0.185900	0.324900
H10381	H1038	0.873600	0.436000	0.838900
H10391	H1039	0.902400	0.439600	0.785600
H10401	H1040	0.970500	0.533000	0.754600
H10411	H1041	0.984900	0.579400	0.790000
C3671	C367	0.918300	0.555700	0.794800
H10421	H1042	0.911100	0.565200	0.776600
H10431	H1043	0.902500	0.556800	0.809600
N621	N62	0.976150	0.643910	0.834580
C3681	C368	0.925800	0.523000	0.788400
H10441	H1044	0.913900	0.510200	0.801200
H10451	H1045	0.920900	0.518300	0.767800
C3691	C369	0.905300	0.606800	0.881400
H10461	H1046	0.923100	0.616600	0.889000
H10471	H1047	0.910600	0.586300	0.876500
H10481	H1048	0.903800	0.663400	0.871000
C3701	C370	0.985400	0.627200	0.859900
H10491	H1049	0.988600	0.606500	0.854200
H10501	H1050	0.969900	0.627800	0.875000
C3711	C371	0.000500	0.643800	0.812400
H10511	H1051	0.994500	0.655100	0.794900
H10521	H1052	0.004700	0.623400	0.806200
C3721	C372	0.972000	0.674500	0.842600
H10531	H1053	0.955600	0.676000	0.856800
H10541	H1054	0.966600	0.685900	0.824900
H10551	H1055	0.373600	0.936000	0.838900
H10561	H1056	0.402400	0.939600	0.785600
H10571	H1057	0.470500	0.033000	0.754600
H10581	H1058	0.484900	0.079400	0.790000
C3731	C373	0.418300	0.055700	0.794800
H10591	H1059	0.411100	0.065200	0.776600
H10601	H1060	0.402500	0.056800	0.809600
N631	N63	0.476150	0.143910	0.834580
C3741	C374	0.425800	0.023000	0.788400
H10611	H1061	0.413900	0.010200	0.801200
H10621	H1062	0.420900	0.018300	0.767800
C3751	C375	0.405300	0.106800	0.881400
H10631	H1063	0.423100	0.116600	0.889000
H10641	H1064	0.410600	0.086300	0.876500
H10651	H1065	0.403800	0.163400	0.871000
C3761	C376	0.485400	0.127200	0.859900
H10661	H1066	0.488600	0.106500	0.854200
H10671	H1067	0.469900	0.127800	0.875000
C3771	C377	0.500500	0.143800	0.812400
H10681	H1068	0.494500	0.155100	0.794900
H10691	H1069	0.504700	0.123400	0.806200
C3781	C378	0.472000	0.174500	0.842600
H10701	H1070	0.455600	0.176000	0.856800
H10711	H1071	0.466600	0.185900	0.824900
H10721	H1072	0.373600	0.436000	0.338900
H10731	H1073	0.402400	0.439600	0.285600
H10741	H1074	0.470500	0.533000	0.254600
H10751	H1075	0.484900	0.579400	0.290000
C3791	C379	0.418300	0.555700	0.294800
H10761	H1076	0.411100	0.565200	0.276600
H10771	H1077	0.402500	0.556800	0.309600
N641	N64	0.476150	0.643910	0.334580
C3801	C380	0.425800	0.523000	0.288400
H10781	H1078	0.413900	0.510200	0.301200
H10791	H1079	0.420900	0.518300	0.267800
C3811	C381	0.405300	0.606800	0.381400
H10801	H1080	0.423100	0.616600	0.389000
H10811	H1081	0.410600	0.586300	0.376500
H10821	H1082	0.403800	0.663400	0.371000
C3821	C382	0.485400	0.627200	0.359900
H10831	H1083	0.488600	0.606500	0.354200
H10841	H1084	0.469900	0.627800	0.375000
C3831	C383	0.500500	0.643800	0.312400
H10851	H1085	0.494500	0.655100	0.294900
H10861	H1086	0.504700	0.623400	0.306200
C3841	C384	0.472000	0.674500	0.342600
H10871	H1087	0.455600	0.676000	0.356800
H10881	H1088	0.466600	0.685900	0.324900
H10891	H1089	0.936000	0.338900	0.873600
H10901	H1090	0.939600	0.285600	0.902400
H10911	H1091	0.033000	0.254600	0.970500
H10921	H1092	0.079400	0.290000	0.984900
C3851	C385	0.055700	0.294800	0.918300
H10931	H1093	0.065200	0.276600	0.911100
H10941	H1094	0.056800	0.309600	0.902500
N651	N65	0.143910	0.334580	0.976150
C3861	C386	0.023000	0.288400	0.925800
H10951	H1095	0.010200	0.301200	0.913900
H10961	H1096	0.018300	0.267800	0.920900
C3871	C387	0.106800	0.381400	0.905300
H10971	H1097	0.116600	0.389000	0.923100
H10981	H1098	0.086300	0.376500	0.910600
H10991	H1099	0.163400	0.371000	0.903800
C3881	C388	0.127200	0.359900	0.985400
H11001	H1100	0.106500	0.354200	0.988600
H11011	H1101	0.127800	0.375000	0.969900
C3891	C389	0.143800	0.312400	0.000500
H11021	H1102	0.155100	0.294900	0.994500
H11031	H1103	0.123400	0.306200	0.004700
C3901	C390	0.174500	0.342600	0.972000
H11041	H1104	0.176000	0.356800	0.955600
H11051	H1105	0.185900	0.324900	0.966600
H11061	H1106	0.936000	0.838900	0.373600
H11071	H1107	0.939600	0.785600	0.402400
H11081	H1108	0.033000	0.754600	0.470500
H11091	H1109	0.079400	0.790000	0.484900
C3911	C391	0.055700	0.794800	0.418300
H11101	H1110	0.065200	0.776600	0.411100
H11111	H1111	0.056800	0.809600	0.402500
N661	N66	0.143910	0.834580	0.476150
C3921	C392	0.023000	0.788400	0.425800
H11121	H1112	0.010200	0.801200	0.413900
H11131	H1113	0.018300	0.767800	0.420900
C3931	C393	0.106800	0.881400	0.405300
H11141	H1114	0.116600	0.889000	0.423100
H11151	H1115	0.086300	0.876500	0.410600
H11161	H1116	0.163400	0.871000	0.403800
C3941	C394	0.127200	0.859900	0.485400
H11171	H1117	0.106500	0.854200	0.488600
H11181	H1118	0.127800	0.875000	0.469900
C3951	C395	0.143800	0.812400	0.500500
H11191	H1119	0.155100	0.794900	0.494500
H11201	H1120	0.123400	0.806200	0.504700
C3961	C396	0.174500	0.842600	0.472000
H11211	H1121	0.176000	0.856800	0.455600
H11221	H1122	0.185900	0.824900	0.466600
H11231	H1123	0.436000	0.338900	0.373600
H11241	H1124	0.439600	0.285600	0.402400
H11251	H1125	0.533000	0.254600	0.470500
H11261	H1126	0.579400	0.290000	0.484900
C3971	C397	0.555700	0.294800	0.418300
H11271	H1127	0.565200	0.276600	0.411100
H11281	H1128	0.556800	0.309600	0.402500
N671	N67	0.643910	0.334580	0.476150
C3981	C398	0.523000	0.288400	0.425800
H11291	H1129	0.510200	0.301200	0.413900
H11301	H1130	0.518300	0.267800	0.420900
C3991	C399	0.606800	0.381400	0.405300
H11311	H1131	0.616600	0.389000	0.423100
H11321	H1132	0.586300	0.376500	0.410600
H11331	H1133	0.663400	0.371000	0.403800
C4001	C400	0.627200	0.359900	0.485400
H11341	H1134	0.606500	0.354200	0.488600
H11351	H1135	0.627800	0.375000	0.469900
C4011	C401	0.643800	0.312400	0.500500
H11361	H1136	0.655100	0.294900	0.494500
H11371	H1137	0.623400	0.306200	0.504700
C4021	C402	0.674500	0.342600	0.472000
H11381	H1138	0.676000	0.356800	0.455600
H11391	H1139	0.685900	0.324900	0.466600
H11401	H1140	0.436000	0.838900	0.873600
H11411	H1141	0.439600	0.785600	0.902400
H11421	H1142	0.533000	0.754600	0.970500
H11431	H1143	0.579400	0.790000	0.984900
C4031	C403	0.555700	0.794800	0.918300
H11441	H1144	0.565200	0.776600	0.911100
H11451	H1145	0.556800	0.809600	0.902500
N681	N68	0.643910	0.834580	0.976150
C4041	C404	0.523000	0.788400	0.925800
H11461	H1146	0.510200	0.801200	0.913900
H11471	H1147	0.518300	0.767800	0.920900
C4051	C405	0.606800	0.881400	0.905300
H11481	H1148	0.616600	0.889000	0.923100
H11491	H1149	0.586300	0.876500	0.910600
H11501	H1150	0.663400	0.871000	0.903800
C4061	C406	0.627200	0.859900	0.985400
H11511	H1151	0.606500	0.854200	0.988600
H11521	H1152	0.627800	0.875000	0.969900
C4071	C407	0.643800	0.812400	0.000500
H11531	H1153	0.655100	0.794900	0.994500
H11541	H1154	0.623400	0.806200	0.004700
C4081	C408	0.674500	0.842600	0.972000
H11551	H1155	0.676000	0.856800	0.955600
H11561	H1156	0.685900	0.824900	0.966600
H11571	H1157	0.314000	0.838900	0.876400
H11581	H1158	0.310400	0.785600	0.847600
H11591	H1159	0.217000	0.754600	0.779500
H11601	H1160	0.170600	0.790000	0.765100
C4091	C409	0.194300	0.794800	0.831700
H11611	H1161	0.184800	0.776600	0.838900
H11621	H1162	0.193200	0.809600	0.847500
N691	N69	0.106090	0.834580	0.773850
C4101	C410	0.227000	0.788400	0.824200
H11631	H1163	0.239800	0.801200	0.836100
H11641	H1164	0.231700	0.767800	0.829100
C4111	C411	0.143200	0.881400	0.844700
H11651	H1165	0.133400	0.889000	0.826900
H11661	H1166	0.163700	0.876500	0.839400
H11671	H1167	0.086600	0.871000	0.846200
C4121	C412	0.122800	0.859900	0.764600
H11681	H1168	0.143500	0.854200	0.761400
H11691	H1169	0.122200	0.875000	0.780100
C4131	C413	0.106200	0.812400	0.749500
H11701	H1170	0.094900	0.794900	0.755500
H11711	H1171	0.126600	0.806200	0.745300
C4141	C414	0.075500	0.842600	0.778000
H11721	H1172	0.074000	0.856800	0.794400
H11731	H1173	0.064100	0.824900	0.783400
H11741	H1174	0.314000	0.338900	0.376400
H11751	H1175	0.310400	0.285600	0.347600
H11761	H1176	0.217000	0.254600	0.279500
H11771	H1177	0.170600	0.290000	0.265100
C4151	C415	0.194300	0.294800	0.331700
H11781	H1178	0.184800	0.276600	0.338900
H11791	H1179	0.193200	0.309600	0.347500
N701	N70	0.106090	0.334580	0.273850
C4161	C416	0.227000	0.288400	0.324200
H11801	H1180	0.239800	0.301200	0.336100
H11811	H1181	0.231700	0.267800	0.329100
C4171	C417	0.143200	0.381400	0.344700
H11821	H1182	0.133400	0.389000	0.326900
H11831	H1183	0.163700	0.376500	0.339400
H11841	H1184	0.086600	0.371000	0.346200
C4181	C418	0.122800	0.359900	0.264600
H11851	H1185	0.143500	0.354200	0.261400
H11861	H1186	0.122200	0.375000	0.280100
C4191	C419	0.106200	0.312400	0.249500
H11871	H1187	0.094900	0.294900	0.255500
H11881	H1188	0.126600	0.306200	0.245300
C4201	C420	0.075500	0.342600	0.278000
H11891	H1189	0.074000	0.356800	0.294400
H11901	H1190	0.064100	0.324900	0.283400
H11911	H1191	0.814000	0.838900	0.376400
H11921	H1192	0.810400	0.785600	0.347600
H11931	H1193	0.717000	0.754600	0.279500
H11941	H1194	0.670600	0.790000	0.265100
C4211	C421	0.694300	0.794800	0.331700
H11951	H1195	0.684800	0.776600	0.338900
H11961	H1196	0.693200	0.809600	0.347500
N711	N71	0.606090	0.834580	0.273850
C4221	C422	0.727000	0.788400	0.324200
H11971	H1197	0.739800	0.801200	0.336100
H11981	H1198	0.731700	0.767800	0.329100
C4231	C423	0.643200	0.881400	0.344700
H11991	H1199	0.633400	0.889000	0.326900
H12001	H1200	0.663700	0.876500	0.339400
H12011	H1201	0.586600	0.871000	0.346200
C4241	C424	0.622800	0.859900	0.264600
H12021	H1202	0.643500	0.854200	0.261400
H12031	H1203	0.622200	0.875000	0.280100
C4251	C425	0.606200	0.812400	0.249500
H12041	H1204	0.594900	0.794900	0.255500
H12051	H1205	0.626600	0.806200	0.245300
C4261	C426	0.575500	0.842600	0.278000
H12061	H1206	0.574000	0.856800	0.294400
H12071	H1207	0.564100	0.824900	0.283400
H12081	H1208	0.814000	0.338900	0.876400
H12091	H1209	0.810400	0.285600	0.847600
H12101	H1210	0.717000	0.254600	0.779500
H12111	H1211	0.670600	0.290000	0.765100
C4271	C427	0.694300	0.294800	0.831700
H12121	H1212	0.684800	0.276600	0.838900
H12131	H1213	0.693200	0.309600	0.847500
N721	N72	0.606090	0.334580	0.773850
C4281	C428	0.727000	0.288400	0.824200
H12141	H1214	0.739800	0.301200	0.836100
H12151	H1215	0.731700	0.267800	0.829100
C4291	C429	0.643200	0.381400	0.844700
H12161	H1216	0.633400	0.389000	0.826900
H12171	H1217	0.663700	0.376500	0.839400
H12181	H1218	0.586600	0.371000	0.846200
C4301	C430	0.622800	0.359900	0.764600
H12191	H1219	0.643500	0.354200	0.761400
H12201	H1220	0.622200	0.375000	0.780100
C4311	C431	0.606200	0.312400	0.749500
H12211	H1221	0.594900	0.294900	0.755500
H12221	H1222	0.626600	0.306200	0.745300
C4321	C432	0.575500	0.342600	0.778000
H12231	H1223	0.574000	0.356800	0.794400
H12241	H1224	0.564100	0.324900	0.783400
H12251	H1225	0.814000	0.911100	0.373600
H12261	H1226	0.810400	0.964400	0.402400
H12271	H1227	0.717000	0.995400	0.470500
H12281	H1228	0.670600	0.960000	0.484900
C4331	C433	0.694300	0.955200	0.418300
H12291	H1229	0.684800	0.973400	0.411100
H12301	H1230	0.693200	0.940400	0.402500
N731	N73	0.606090	0.915420	0.476150
C4341	C434	0.727000	0.961600	0.425800
H12311	H1231	0.739800	0.948800	0.413900
H12321	H1232	0.731700	0.982200	0.420900
C4351	C435	0.643200	0.868600	0.405300
H12331	H1233	0.633400	0.861000	0.423100
H12341	H1234	0.663700	0.873500	0.410600
H12351	H1235	0.586600	0.879000	0.403800
C4361	C436	0.622800	0.890100	0.485400
H12361	H1236	0.643500	0.895800	0.488600
H12371	H1237	0.622200	0.875000	0.469900
C4371	C437	0.606200	0.937600	0.500500
H12381	H1238	0.594900	0.955100	0.494500
H12391	H1239	0.626600	0.943800	0.504700
C4381	C438	0.575500	0.907400	0.472000
H12401	H1240	0.574000	0.893200	0.455600
H12411	H1241	0.564100	0.925100	0.466600
H12421	H1242	0.814000	0.411100	0.873600
H12431	H1243	0.810400	0.464400	0.902400
H12441	H1244	0.717000	0.495400	0.970500
H12451	H1245	0.670600	0.460000	0.984900
C4391	C439	0.694300	0.455200	0.918300
H12461	H1246	0.684800	0.473400	0.911100
H12471	H1247	0.693200	0.440400	0.902500
N741	N74	0.606090	0.415420	0.976150
C4401	C440	0.727000	0.461600	0.925800
H12481	H1248	0.739800	0.448800	0.913900
H12491	H1249	0.731700	0.482200	0.920900
C4411	C441	0.643200	0.368600	0.905300
H12501	H1250	0.633400	0.361000	0.923100
H12511	H1251	0.663700	0.373500	0.910600
H12521	H1252	0.586600	0.379000	0.903800
C4421	C442	0.622800	0.390100	0.985400
H12531	H1253	0.643500	0.395800	0.988600
H12541	H1254	0.622200	0.375000	0.969900
C4431	C443	0.606200	0.437600	0.000500
H12551	H1255	0.594900	0.455100	0.994500
H12561	H1256	0.626600	0.443800	0.004700
C4441	C444	0.575500	0.407400	0.972000
H12571	H1257	0.574000	0.393200	0.955600
H12581	H1258	0.564100	0.425100	0.966600
H12591	H1259	0.314000	0.911100	0.873600
H12601	H1260	0.310400	0.964400	0.902400
H12611	H1261	0.217000	0.995400	0.970500
H12621	H1262	0.170600	0.960000	0.984900
C4451	C445	0.194300	0.955200	0.918300
H12631	H1263	0.184800	0.973400	0.911100
H12641	H1264	0.193200	0.940400	0.902500
N751	N75	0.106090	0.915420	0.976150
C4461	C446	0.227000	0.961600	0.925800
H12651	H1265	0.239800	0.948800	0.913900
H12661	H1266	0.231700	0.982200	0.920900
C4471	C447	0.143200	0.868600	0.905300
H12671	H1267	0.133400	0.861000	0.923100
H12681	H1268	0.163700	0.873500	0.910600
H12691	H1269	0.086600	0.879000	0.903800
C4481	C448	0.122800	0.890100	0.985400
H12701	H1270	0.143500	0.895800	0.988600
H12711	H1271	0.122200	0.875000	0.969900
C4491	C449	0.106200	0.937600	0.000500
H12721	H1272	0.094900	0.955100	0.994500
H12731	H1273	0.126600	0.943800	0.004700
C4501	C450	0.075500	0.907400	0.972000
H12741	H1274	0.074000	0.893200	0.955600
H12751	H1275	0.064100	0.925100	0.966600
H12761	H1276	0.314000	0.411100	0.373600
H12771	H1277	0.310400	0.464400	0.402400
H12781	H1278	0.217000	0.495400	0.470500
H12791	H1279	0.170600	0.460000	0.484900
C4511	C451	0.194300	0.455200	0.418300
H12801	H1280	0.184800	0.473400	0.411100
H12811	H1281	0.193200	0.440400	0.402500
N761	N76	0.106090	0.415420	0.476150
C4521	C452	0.227000	0.461600	0.425800
H12821	H1282	0.239800	0.448800	0.413900
H12831	H1283	0.231700	0.482200	0.420900
C4531	C453	0.143200	0.368600	0.405300
H12841	H1284	0.133400	0.361000	0.423100
H12851	H1285	0.163700	0.373500	0.410600
H12861	H1286	0.086600	0.379000	0.403800
C4541	C454	0.122800	0.390100	0.485400
H12871	H1287	0.143500	0.395800	0.488600
H12881	H1288	0.122200	0.375000	0.469900
C4551	C455	0.106200	0.437600	0.500500
H12891	H1289	0.094900	0.455100	0.494500
H12901	H1290	0.126600	0.443800	0.504700
C4561	C456	0.075500	0.407400	0.472000
H12911	H1291	0.074000	0.393200	0.455600
H12921	H1292	0.064100	0.425100	0.466600
H12931	H1293	0.436000	0.411100	0.376400
H12941	H1294	0.439600	0.464400	0.347600
H12951	H1295	0.533000	0.495400	0.279500
H12961	H1296	0.579400	0.460000	0.265100
C4571	C457	0.555700	0.455200	0.331700
H12971	H1297	0.565200	0.473400	0.338900
H12981	H1298	0.556800	0.440400	0.347500
N771	N77	0.643910	0.415420	0.273850
C4581	C458	0.523000	0.461600	0.324200
H12991	H1299	0.510200	0.448800	0.336100
H13001	H1300	0.518300	0.482200	0.329100
C4591	C459	0.606800	0.368600	0.344700
H13011	H1301	0.616600	0.361000	0.326900
H13021	H1302	0.586300	0.373500	0.339400
H13031	H1303	0.663400	0.379000	0.346200
C4601	C460	0.627200	0.390100	0.264600
H13041	H1304	0.606500	0.395800	0.261400
H13051	H1305	0.627800	0.375000	0.280100
C4611	C461	0.643800	0.437600	0.249500
H13061	H1306	0.655100	0.455100	0.255500
H13071	H1307	0.623400	0.443800	0.245300
C4621	C462	0.674500	0.407400	0.278000
H13081	H1308	0.676000	0.393200	0.294400
H13091	H1309	0.685900	0.425100	0.283400
H13101	H1310	0.436000	0.911100	0.876400
H13111	H1311	0.439600	0.964400	0.847600
H13121	H1312	0.533000	0.995400	0.779500
H13131	H1313	0.579400	0.960000	0.765100
C4631	C463	0.555700	0.955200	0.831700
H13141	H1314	0.565200	0.973400	0.838900
H13151	H1315	0.556800	0.940400	0.847500
N781	N78	0.643910	0.915420	0.773850
C4641	C464	0.523000	0.961600	0.824200
H13161	H1316	0.510200	0.948800	0.836100
H13171	H1317	0.518300	0.982200	0.829100
C4651	C465	0.606800	0.868600	0.844700
H13181	H1318	0.616600	0.861000	0.826900
H13191	H1319	0.586300	0.873500	0.839400
H13201	H1320	0.663400	0.879000	0.846200
C4661	C466	0.627200	0.890100	0.764600
H13211	H1321	0.606500	0.895800	0.761400
H13221	H1322	0.627800	0.875000	0.780100
C4671	C467	0.643800	0.937600	0.749500
H13231	H1323	0.655100	0.955100	0.755500
H13241	H1324	0.623400	0.943800	0.745300
C4681	C468	0.674500	0.907400	0.778000
H13251	H1325	0.676000	0.893200	0.794400
H13261	H1326	0.685900	0.925100	0.783400
H13271	H1327	0.936000	0.411100	0.876400
H13281	H1328	0.939600	0.464400	0.847600
H13291	H1329	0.033000	0.495400	0.779500
H13301	H1330	0.079400	0.460000	0.765100
C4691	C469	0.055700	0.455200	0.831700
H13311	H1331	0.065200	0.473400	0.838900
H13321	H1332	0.056800	0.440400	0.847500
N791	N79	0.143910	0.415420	0.773850
C4701	C470	0.023000	0.461600	0.824200
H13331	H1333	0.010200	0.448800	0.836100
H13341	H1334	0.018300	0.482200	0.829100
C4711	C471	0.106800	0.368600	0.844700
H13351	H1335	0.116600	0.361000	0.826900
H13361	H1336	0.086300	0.373500	0.839400
H13371	H1337	0.163400	0.379000	0.846200
C4721	C472	0.127200	0.390100	0.764600
H13381	H1338	0.106500	0.395800	0.761400
H13391	H1339	0.127800	0.375000	0.780100
C4731	C473	0.143800	0.437600	0.749500
H13401	H1340	0.155100	0.455100	0.755500
H13411	H1341	0.123400	0.443800	0.745300
C4741	C474	0.174500	0.407400	0.778000
H13421	H1342	0.176000	0.393200	0.794400
H13431	H1343	0.185900	0.425100	0.783400
H13441	H1344	0.936000	0.911100	0.376400
H13451	H1345	0.939600	0.964400	0.347600
H13461	H1346	0.033000	0.995400	0.279500
H13471	H1347	0.079400	0.960000	0.265100
C4751	C475	0.055700	0.955200	0.331700
H13481	H1348	0.065200	0.973400	0.338900
H13491	H1349	0.056800	0.940400	0.347500
N801	N80	0.143910	0.915420	0.273850
C4761	C476	0.023000	0.961600	0.324200
H13501	H1350	0.010200	0.948800	0.336100
H13511	H1351	0.018300	0.982200	0.329100
C4771	C477	0.106800	0.868600	0.344700
H13521	H1352	0.116600	0.861000	0.326900
H13531	H1353	0.086300	0.873500	0.339400
H13541	H1354	0.163400	0.879000	0.346200
C4781	C478	0.127200	0.890100	0.264600
H13551	H1355	0.106500	0.895800	0.261400
H13561	H1356	0.127800	0.875000	0.280100
C4791	C479	0.143800	0.937600	0.249500
H13571	H1357	0.155100	0.955100	0.255500
H13581	H1358	0.123400	0.943800	0.245300
C4801	C480	0.174500	0.907400	0.278000
H13591	H1359	0.176000	0.893200	0.294400
H13601	H1360	0.185900	0.925100	0.283400
H13611	H1361	0.838900	0.876400	0.314000
H13621	H1362	0.785600	0.847600	0.310400
H13631	H1363	0.754600	0.779500	0.217000
H13641	H1364	0.790000	0.765100	0.170600
C4811	C481	0.794800	0.831700	0.194300
H13651	H1365	0.776600	0.838900	0.184800
H13661	H1366	0.809600	0.847500	0.193200
N811	N81	0.834580	0.773850	0.106090
C4821	C482	0.788400	0.824200	0.227000
H13671	H1367	0.801200	0.836100	0.239800
H13681	H1368	0.767800	0.829100	0.231700
C4831	C483	0.881400	0.844700	0.143200
H13691	H1369	0.889000	0.826900	0.133400
H13701	H1370	0.876500	0.839400	0.163700
H13711	H1371	0.871000	0.846200	0.086600
C4841	C484	0.859900	0.764600	0.122800
H13721	H1372	0.854200	0.761400	0.143500
H13731	H1373	0.875000	0.780100	0.122200
C4851	C485	0.812400	0.749500	0.106200
H13741	H1374	0.794900	0.755500	0.094900
H13751	H1375	0.806200	0.745300	0.126600
C4861	C486	0.842600	0.778000	0.075500
H13761	H1376	0.856800	0.794400	0.074000
H13771	H1377	0.824900	0.783400	0.064100
H13781	H1378	0.838900	0.376400	0.814000
H13791	H1379	0.785600	0.347600	0.810400
H13801	H1380	0.754600	0.279500	0.717000
H13811	H1381	0.790000	0.265100	0.670600
C4871	C487	0.794800	0.331700	0.694300
H13821	H1382	0.776600	0.338900	0.684800
H13831	H1383	0.809600	0.347500	0.693200
N821	N82	0.834580	0.273850	0.606090
C4881	C488	0.788400	0.324200	0.727000
H13841	H1384	0.801200	0.336100	0.739800
H13851	H1385	0.767800	0.329100	0.731700
C4891	C489	0.881400	0.344700	0.643200
H13861	H1386	0.889000	0.326900	0.633400
H13871	H1387	0.876500	0.339400	0.663700
H13881	H1388	0.871000	0.346200	0.586600
C4901	C490	0.859900	0.264600	0.622800
H13891	H1389	0.854200	0.261400	0.643500
H13901	H1390	0.875000	0.280100	0.622200
C4911	C491	0.812400	0.249500	0.606200
H13911	H1391	0.794900	0.255500	0.594900
H13921	H1392	0.806200	0.245300	0.626600
C4921	C492	0.842600	0.278000	0.575500
H13931	H1393	0.856800	0.294400	0.574000
H13941	H1394	0.824900	0.283400	0.564100
H13951	H1395	0.338900	0.876400	0.814000
H13961	H1396	0.285600	0.847600	0.810400
H13971	H1397	0.254600	0.779500	0.717000
H13981	H1398	0.290000	0.765100	0.670600
C4931	C493	0.294800	0.831700	0.694300
H13991	H1399	0.276600	0.838900	0.684800
H14001	H1400	0.309600	0.847500	0.693200
N831	N83	0.334580	0.773850	0.606090
C4941	C494	0.288400	0.824200	0.727000
H14011	H1401	0.301200	0.836100	0.739800
H14021	H1402	0.267800	0.829100	0.731700
C4951	C495	0.381400	0.844700	0.643200
H14031	H1403	0.389000	0.826900	0.633400
H14041	H1404	0.376500	0.839400	0.663700
H14051	H1405	0.371000	0.846200	0.586600
C4961	C496	0.359900	0.764600	0.622800
H14061	H1406	0.354200	0.761400	0.643500
H14071	H1407	0.375000	0.780100	0.622200
C4971	C497	0.312400	0.749500	0.606200
H14081	H1408	0.294900	0.755500	0.594900
H14091	H1409	0.306200	0.745300	0.626600
C4981	C498	0.342600	0.778000	0.575500
H14101	H1410	0.356800	0.794400	0.574000
H14111	H1411	0.324900	0.783400	0.564100
H14121	H1412	0.338900	0.376400	0.314000
H14131	H1413	0.285600	0.347600	0.310400
H14141	H1414	0.254600	0.279500	0.217000
H14151	H1415	0.290000	0.265100	0.170600
C4991	C499	0.294800	0.331700	0.194300
H14161	H1416	0.276600	0.338900	0.184800
H14171	H1417	0.309600	0.347500	0.193200
N841	N84	0.334580	0.273850	0.106090
C5001	C500	0.288400	0.324200	0.227000
H14181	H1418	0.301200	0.336100	0.239800
H14191	H1419	0.267800	0.329100	0.231700
C5011	C501	0.381400	0.344700	0.143200
H14201	H1420	0.389000	0.326900	0.133400
H14211	H1421	0.376500	0.339400	0.163700
H14221	H1422	0.371000	0.346200	0.086600
C5021	C502	0.359900	0.264600	0.122800
H14231	H1423	0.354200	0.261400	0.143500
H14241	H1424	0.375000	0.280100	0.122200
C5031	C503	0.312400	0.249500	0.106200
H14251	H1425	0.294900	0.255500	0.094900
H14261	H1426	0.306200	0.245300	0.126600
C5041	C504	0.342600	0.278000	0.075500
H14271	H1427	0.356800	0.294400	0.074000
H14281	H1428	0.324900	0.283400	0.064100
H14291	H1429	0.338900	0.873600	0.936000
H14301	H1430	0.285600	0.902400	0.939600
H14311	H1431	0.254600	0.970500	0.033000
H14321	H1432	0.290000	0.984900	0.079400
C5051	C505	0.294800	0.918300	0.055700
H14331	H1433	0.276600	0.911100	0.065200
H14341	H1434	0.309600	0.902500	0.056800
N851	N85	0.334580	0.976150	0.143910
C5061	C506	0.288400	0.925800	0.023000
H14351	H1435	0.301200	0.913900	0.010200
H14361	H1436	0.267800	0.920900	0.018300
C5071	C507	0.381400	0.905300	0.106800
H14371	H1437	0.389000	0.923100	0.116600
H14381	H1438	0.376500	0.910600	0.086300
H14391	H1439	0.371000	0.903800	0.163400
C5081	C508	0.359900	0.985400	0.127200
H14401	H1440	0.354200	0.988600	0.106500
H14411	H1441	0.375000	0.969900	0.127800
C5091	C509	0.312400	0.000500	0.143800
H14421	H1442	0.294900	0.994500	0.155100
H14431	H1443	0.306200	0.004700	0.123400
C5101	C510	0.342600	0.972000	0.174500
H14441	H1444	0.356800	0.955600	0.176000
H14451	H1445	0.324900	0.966600	0.185900
H14461	H1446	0.338900	0.373600	0.436000
H14471	H1447	0.285600	0.402400	0.439600
H14481	H1448	0.254600	0.470500	0.533000
H14491	H1449	0.290000	0.484900	0.579400
C5111	C511	0.294800	0.418300	0.555700
H14501	H1450	0.276600	0.411100	0.565200
H14511	H1451	0.309600	0.402500	0.556800
N861	N86	0.334580	0.476150	0.643910
C5121	C512	0.288400	0.425800	0.523000
H14521	H1452	0.301200	0.413900	0.510200
H14531	H1453	0.267800	0.420900	0.518300
C5131	C513	0.381400	0.405300	0.606800
H14541	H1454	0.389000	0.423100	0.616600
H14551	H1455	0.376500	0.410600	0.586300
H14561	H1456	0.371000	0.403800	0.663400
C5141	C514	0.359900	0.485400	0.627200
H14571	H1457	0.354200	0.488600	0.606500
H14581	H1458	0.375000	0.469900	0.627800
C5151	C515	0.312400	0.500500	0.643800
H14591	H1459	0.294900	0.494500	0.655100
H14601	H1460	0.306200	0.504700	0.623400
C5161	C516	0.342600	0.472000	0.674500
H14611	H1461	0.356800	0.455600	0.676000
H14621	H1462	0.324900	0.466600	0.685900
H14631	H1463	0.838900	0.873600	0.436000
H14641	H1464	0.785600	0.902400	0.439600
H14651	H1465	0.754600	0.970500	0.533000
H14661	H1466	0.790000	0.984900	0.579400
C5171	C517	0.794800	0.918300	0.555700
H14671	H1467	0.776600	0.911100	0.565200
H14681	H1468	0.809600	0.902500	0.556800
N871	N87	0.834580	0.976150	0.643910
C5181	C518	0.788400	0.925800	0.523000
H14691	H1469	0.801200	0.913900	0.510200
H14701	H1470	0.767800	0.920900	0.518300
C5191	C519	0.881400	0.905300	0.606800
H14711	H1471	0.889000	0.923100	0.616600
H14721	H1472	0.876500	0.910600	0.586300
H14731	H1473	0.871000	0.903800	0.663400
C5201	C520	0.859900	0.985400	0.627200
H14741	H1474	0.854200	0.988600	0.606500
H14751	H1475	0.875000	0.969900	0.627800
C5211	C521	0.812400	0.000500	0.643800
H14761	H1476	0.794900	0.994500	0.655100
H14771	H1477	0.806200	0.004700	0.623400
C5221	C522	0.842600	0.972000	0.674500
H14781	H1478	0.856800	0.955600	0.676000
H14791	H1479	0.824900	0.966600	0.685900
H14801	H1480	0.838900	0.373600	0.936000
H14811	H1481	0.785600	0.402400	0.939600
H14821	H1482	0.754600	0.470500	0.033000
H14831	H1483	0.790000	0.484900	0.079400
C5231	C523	0.794800	0.418300	0.055700
H14841	H1484	0.776600	0.411100	0.065200
H14851	H1485	0.809600	0.402500	0.056800
N881	N88	0.834580	0.476150	0.143910
C5241	C524	0.788400	0.425800	0.023000
H14861	H1486	0.801200	0.413900	0.010200
H14871	H1487	0.767800	0.420900	0.018300
C5251	C525	0.881400	0.405300	0.106800
H14881	H1488	0.889000	0.423100	0.116600
H14891	H1489	0.876500	0.410600	0.086300
H14901	H1490	0.871000	0.403800	0.163400
C5261	C526	0.859900	0.485400	0.127200
H14911	H1491	0.854200	0.488600	0.106500
H14921	H1492	0.875000	0.469900	0.127800
C5271	C527	0.812400	0.500500	0.143800
H14931	H1493	0.794900	0.494500	0.155100
H14941	H1494	0.806200	0.504700	0.123400
C5281	C528	0.842600	0.472000	0.174500
H14951	H1495	0.856800	0.455600	0.176000
H14961	H1496	0.824900	0.466600	0.185900
H14971	H1497	0.411100	0.376400	0.436000
H14981	H1498	0.464400	0.347600	0.439600
H14991	H1499	0.495400	0.279500	0.533000
H15001	H1500	0.460000	0.265100	0.579400
C5291	C529	0.455200	0.331700	0.555700
H15011	H1501	0.473400	0.338900	0.565200
H15021	H1502	0.440400	0.347500	0.556800
N891	N89	0.415420	0.273850	0.643910
C5301	C530	0.461600	0.324200	0.523000
H15031	H1503	0.448800	0.336100	0.510200
H15041	H1504	0.482200	0.329100	0.518300
C5311	C531	0.368600	0.344700	0.606800
H15051	H1505	0.361000	0.326900	0.616600
H15061	H1506	0.373500	0.339400	0.586300
H15071	H1507	0.379000	0.346200	0.663400
C5321	C532	0.390100	0.264600	0.627200
H15081	H1508	0.395800	0.261400	0.606500
H15091	H1509	0.375000	0.280100	0.627800
C5331	C533	0.437600	0.249500	0.643800
H15101	H1510	0.455100	0.255500	0.655100
H15111	H1511	0.443800	0.245300	0.623400
C5341	C534	0.407400	0.278000	0.674500
H15121	H1512	0.393200	0.294400	0.676000
H15131	H1513	0.425100	0.283400	0.685900
H15141	H1514	0.411100	0.876400	0.936000
H15151	H1515	0.464400	0.847600	0.939600
H15161	H1516	0.495400	0.779500	0.033000
H15171	H1517	0.460000	0.765100	0.079400
C5351	C535	0.455200	0.831700	0.055700
H15181	H1518	0.473400	0.838900	0.065200
H15191	H1519	0.440400	0.847500	0.056800
N901	N90	0.415420	0.773850	0.143910
C5361	C536	0.461600	0.824200	0.023000
H15201	H1520	0.448800	0.836100	0.010200
H15211	H1521	0.482200	0.829100	0.018300
C5371	C537	0.368600	0.844700	0.106800
H15221	H1522	0.361000	0.826900	0.116600
H15231	H1523	0.373500	0.839400	0.086300
H15241	H1524	0.379000	0.846200	0.163400
C5381	C538	0.390100	0.764600	0.127200
H15251	H1525	0.395800	0.761400	0.106500
H15261	H1526	0.375000	0.780100	0.127800
C5391	C539	0.437600	0.749500	0.143800
H15271	H1527	0.455100	0.755500	0.155100
H15281	H1528	0.443800	0.745300	0.123400
C5401	C540	0.407400	0.778000	0.174500
H15291	H1529	0.393200	0.794400	0.176000
H15301	H1530	0.425100	0.783400	0.185900
H15311	H1531	0.911100	0.376400	0.936000
H15321	H1532	0.964400	0.347600	0.939600
H15331	H1533	0.995400	0.279500	0.033000
H15341	H1534	0.960000	0.265100	0.079400
C5411	C541	0.955200	0.331700	0.055700
H15351	H1535	0.973400	0.338900	0.065200
H15361	H1536	0.940400	0.347500	0.056800
N911	N91	0.915420	0.273850	0.143910
C5421	C542	0.961600	0.324200	0.023000
H15371	H1537	0.948800	0.336100	0.010200
H15381	H1538	0.982200	0.329100	0.018300
C5431	C543	0.868600	0.344700	0.106800
H15391	H1539	0.861000	0.326900	0.116600
H15401	H1540	0.873500	0.339400	0.086300
H15411	H1541	0.879000	0.346200	0.163400
C5441	C544	0.890100	0.264600	0.127200
H15421	H1542	0.895800	0.261400	0.106500
H15431	H1543	0.875000	0.280100	0.127800
C5451	C545	0.937600	0.249500	0.143800
H15441	H1544	0.955100	0.255500	0.155100
H15451	H1545	0.943800	0.245300	0.123400
C5461	C546	0.907400	0.278000	0.174500
H15461	H1546	0.893200	0.294400	0.176000
H15471	H1547	0.925100	0.283400	0.185900
H15481	H1548	0.911100	0.876400	0.436000
H15491	H1549	0.964400	0.847600	0.439600
H15501	H1550	0.995400	0.779500	0.533000
H15511	H1551	0.960000	0.765100	0.579400
C5471	C547	0.955200	0.831700	0.555700
H15521	H1552	0.973400	0.838900	0.565200
H15531	H1553	0.940400	0.847500	0.556800
N921	N92	0.915420	0.773850	0.643910
C5481	C548	0.961600	0.824200	0.523000
H15541	H1554	0.948800	0.836100	0.510200
H15551	H1555	0.982200	0.829100	0.518300
C5491	C549	0.868600	0.844700	0.606800
H15561	H1556	0.861000	0.826900	0.616600
H15571	H1557	0.873500	0.839400	0.586300
H15581	H1558	0.879000	0.846200	0.663400
C5501	C550	0.890100	0.764600	0.627200
H15591	H1559	0.895800	0.761400	0.606500
H15601	H1560	0.875000	0.780100	0.627800
C5511	C551	0.937600	0.749500	0.643800
H15611	H1561	0.955100	0.755500	0.655100
H15621	H1562	0.943800	0.745300	0.623400
C5521	C552	0.907400	0.778000	0.674500
H15631	H1563	0.893200	0.794400	0.676000
H15641	H1564	0.925100	0.783400	0.685900
H15651	H1565	0.911100	0.373600	0.814000
H15661	H1566	0.964400	0.402400	0.810400
H15671	H1567	0.995400	0.470500	0.717000
H15681	H1568	0.960000	0.484900	0.670600
C5531	C553	0.955200	0.418300	0.694300
H15691	H1569	0.973400	0.411100	0.684800
H15701	H1570	0.940400	0.402500	0.693200
N931	N93	0.915420	0.476150	0.606090
C5541	C554	0.961600	0.425800	0.727000
H15711	H1571	0.948800	0.413900	0.739800
H15721	H1572	0.982200	0.420900	0.731700
C5551	C555	0.868600	0.405300	0.643200
H15731	H1573	0.861000	0.423100	0.633400
H15741	H1574	0.873500	0.410600	0.663700
H15751	H1575	0.879000	0.403800	0.586600
C5561	C556	0.890100	0.485400	0.622800
H15761	H1576	0.895800	0.488600	0.643500
H15771	H1577	0.875000	0.469900	0.622200
C5571	C557	0.937600	0.500500	0.606200
H15781	H1578	0.955100	0.494500	0.594900
H15791	H1579	0.943800	0.504700	0.626600
C5581	C558	0.907400	0.472000	0.575500
H15801	H1580	0.893200	0.455600	0.574000
H15811	H1581	0.925100	0.466600	0.564100
H15821	H1582	0.911100	0.873600	0.314000
H15831	H1583	0.964400	0.902400	0.310400
H15841	H1584	0.995400	0.970500	0.217000
H15851	H1585	0.960000	0.984900	0.170600
C5591	C559	0.955200	0.918300	0.194300
H15861	H1586	0.973400	0.911100	0.184800
H15871	H1587	0.940400	0.902500	0.193200
N941	N94	0.915420	0.976150	0.106090
C5601	C560	0.961600	0.925800	0.227000
H15881	H1588	0.948800	0.913900	0.239800
H15891	H1589	0.982200	0.920900	0.231700
C5611	C561	0.868600	0.905300	0.143200
H15901	H1590	0.861000	0.923100	0.133400
H15911	H1591	0.873500	0.910600	0.163700
H15921	H1592	0.879000	0.903800	0.086600
C5621	C562	0.890100	0.985400	0.122800
H15931	H1593	0.895800	0.988600	0.143500
H15941	H1594	0.875000	0.969900	0.122200
C5631	C563	0.937600	0.000500	0.106200
H15951	H1595	0.955100	0.994500	0.094900
H15961	H1596	0.943800	0.004700	0.126600
C5641	C564	0.907400	0.972000	0.075500
H15971	H1597	0.893200	0.955600	0.074000
H15981	H1598	0.925100	0.966600	0.064100
H15991	H1599	0.411100	0.373600	0.314000
H16001	H1600	0.464400	0.402400	0.310400
H16011	H1601	0.495400	0.470500	0.217000
H16021	H1602	0.460000	0.484900	0.170600
C5651	C565	0.455200	0.418300	0.194300
H16031	H1603	0.473400	0.411100	0.184800
H16041	H1604	0.440400	0.402500	0.193200
N951	N95	0.415420	0.476150	0.106090
C5661	C566	0.461600	0.425800	0.227000
H16051	H1605	0.448800	0.413900	0.239800
H16061	H1606	0.482200	0.420900	0.231700
C5671	C567	0.368600	0.405300	0.143200
H16071	H1607	0.361000	0.423100	0.133400
H16081	H1608	0.373500	0.410600	0.163700
H16091	H1609	0.379000	0.403800	0.086600
C5681	C568	0.390100	0.485400	0.122800
H16101	H1610	0.395800	0.488600	0.143500
H16111	H1611	0.375000	0.469900	0.122200
C5691	C569	0.437600	0.500500	0.106200
H16121	H1612	0.455100	0.494500	0.094900
H16131	H1613	0.443800	0.504700	0.126600
C5701	C570	0.407400	0.472000	0.075500
H16141	H1614	0.393200	0.455600	0.074000
H16151	H1615	0.425100	0.466600	0.064100
H16161	H1616	0.411100	0.873600	0.814000
H16171	H1617	0.464400	0.902400	0.810400
H16181	H1618	0.495400	0.970500	0.717000
H16191	H1619	0.460000	0.984900	0.670600
C5711	C571	0.455200	0.918300	0.694300
H16201	H1620	0.473400	0.911100	0.684800
H16211	H1621	0.440400	0.902500	0.693200
N961	N96	0.415420	0.976150	0.606090
C5721	C572	0.461600	0.925800	0.727000
H16221	H1622	0.448800	0.913900	0.739800
H16231	H1623	0.482200	0.920900	0.731700
C5731	C573	0.368600	0.905300	0.643200
H16241	H1624	0.361000	0.923100	0.633400
H16251	H1625	0.373500	0.910600	0.663700
H16261	H1626	0.379000	0.903800	0.586600
C5741	C574	0.390100	0.985400	0.622800
H16271	H1627	0.395800	0.988600	0.643500
H16281	H1628	0.375000	0.969900	0.622200
C5751	C575	0.437600	0.000500	0.606200
H16291	H1629	0.455100	0.994500	0.594900
H16301	H1630	0.443800	0.004700	0.626600
C5761	C576	0.407400	0.972000	0.575500
H16311	H1631	0.393200	0.955600	0.574000
H16321	H1632	0.425100	0.966600	0.564100
H16331	H1633	0.814000	0.373600	0.911100
H16341	H1634	0.810400	0.402400	0.964400
H16351	H1635	0.717000	0.470500	0.995400
H16361	H1636	0.670600	0.484900	0.960000
C5771	C577	0.694300	0.418300	0.955200
H16371	H1637	0.684800	0.411100	0.973400
H16381	H1638	0.693200	0.402500	0.940400
N971	N97	0.606090	0.476150	0.915420
C5781	C578	0.727000	0.425800	0.961600
H16391	H1639	0.739800	0.413900	0.948800
H16401	H1640	0.731700	0.420900	0.982200
C5791	C579	0.643200	0.405300	0.868600
H16411	H1641	0.633400	0.423100	0.861000
H16421	H1642	0.663700	0.410600	0.873500
H16431	H1643	0.586600	0.403800	0.879000
C5801	C580	0.622800	0.485400	0.890100
H16441	H1644	0.643500	0.488600	0.895800
H16451	H1645	0.622200	0.469900	0.875000
C5811	C581	0.606200	0.500500	0.937600
H16461	H1646	0.594900	0.494500	0.955100
H16471	H1647	0.626600	0.504700	0.943800
C5821	C582	0.575500	0.472000	0.907400
H16481	H1648	0.574000	0.455600	0.893200
H16491	H1649	0.564100	0.466600	0.925100
H16501	H1650	0.814000	0.873600	0.411100
H16511	H1651	0.810400	0.902400	0.464400
H16521	H1652	0.717000	0.970500	0.495400
H16531	H1653	0.670600	0.984900	0.460000
C5831	C583	0.694300	0.918300	0.455200
H16541	H1654	0.684800	0.911100	0.473400
H16551	H1655	0.693200	0.902500	0.440400
N981	N98	0.606090	0.976150	0.415420
C5841	C584	0.727000	0.925800	0.461600
H16561	H1656	0.739800	0.913900	0.448800
H16571	H1657	0.731700	0.920900	0.482200
C5851	C585	0.643200	0.905300	0.368600
H16581	H1658	0.633400	0.923100	0.361000
H16591	H1659	0.663700	0.910600	0.373500
H16601	H1660	0.586600	0.903800	0.379000
C5861	C586	0.622800	0.985400	0.390100
H16611	H1661	0.643500	0.988600	0.395800
H16621	H1662	0.622200	0.969900	0.375000
C5871	C587	0.606200	0.000500	0.437600
H16631	H1663	0.594900	0.994500	0.455100
H16641	H1664	0.626600	0.004700	0.443800
C5881	C588	0.575500	0.972000	0.407400
H16651	H1665	0.574000	0.955600	0.393200
H16661	H1666	0.564100	0.966600	0.425100
H16671	H1667	0.314000	0.373600	0.411100
H16681	H1668	0.310400	0.402400	0.464400
H16691	H1669	0.217000	0.470500	0.495400
H16701	H1670	0.170600	0.484900	0.460000
C5891	C589	0.194300	0.418300	0.455200
H16711	H1671	0.184800	0.411100	0.473400
H16721	H1672	0.193200	0.402500	0.440400
N991	N99	0.106090	0.476150	0.415420
C5901	C590	0.227000	0.425800	0.461600
H16731	H1673	0.239800	0.413900	0.448800
H16741	H1674	0.231700	0.420900	0.482200
C5911	C591	0.143200	0.405300	0.368600
H16751	H1675	0.133400	0.423100	0.361000
H16761	H1676	0.163700	0.410600	0.373500
H16771	H1677	0.086600	0.403800	0.379000
C5921	C592	0.122800	0.485400	0.390100
H16781	H1678	0.143500	0.488600	0.395800
H16791	H1679	0.122200	0.469900	0.375000
C5931	C593	0.106200	0.500500	0.437600
H16801	H1680	0.094900	0.494500	0.455100
H16811	H1681	0.126600	0.504700	0.443800
C5941	C594	0.075500	0.472000	0.407400
H16821	H1682	0.074000	0.455600	0.393200
H16831	H1683	0.064100	0.466600	0.425100
H16841	H1684	0.314000	0.873600	0.911100
H16851	H1685	0.310400	0.902400	0.964400
H16861	H1686	0.217000	0.970500	0.995400
H16871	H1687	0.170600	0.984900	0.960000
C5951	C595	0.194300	0.918300	0.955200
H16881	H1688	0.184800	0.911100	0.973400
H16891	H1689	0.193200	0.902500	0.940400
N1001	N100	0.106090	0.976150	0.915420
C5961	C596	0.227000	0.925800	0.961600
H16901	H1690	0.239800	0.913900	0.948800
H16911	H1691	0.231700	0.920900	0.982200
C5971	C597	0.143200	0.905300	0.868600
H16921	H1692	0.133400	0.923100	0.861000
H16931	H1693	0.163700	0.910600	0.873500
H16941	H1694	0.086600	0.903800	0.879000
C5981	C598	0.122800	0.985400	0.890100
H16951	H1695	0.143500	0.988600	0.895800
H16961	H1696	0.122200	0.969900	0.875000
C5991	C599	0.106200	0.000500	0.937600
H16971	H1697	0.094900	0.994500	0.955100
H16981	H1698	0.126600	0.004700	0.943800
C6001	C600	0.075500	0.972000	0.907400
H16991	H1699	0.074000	0.955600	0.893200
H17001	H1700	0.064100	0.966600	0.925100
H17011	H1701	0.436000	0.376400	0.411100
H17021	H1702	0.439600	0.347600	0.464400
H17031	H1703	0.533000	0.279500	0.495400
H17041	H1704	0.579400	0.265100	0.460000
C6011	C601	0.555700	0.331700	0.455200
H17051	H1705	0.565200	0.338900	0.473400
H17061	H1706	0.556800	0.347500	0.440400
N1011	N101	0.643910	0.273850	0.415420
C6021	C602	0.523000	0.324200	0.461600
H17071	H1707	0.510200	0.336100	0.448800
H17081	H1708	0.518300	0.329100	0.482200
C6031	C603	0.606800	0.344700	0.368600
H17091	H1709	0.616600	0.326900	0.361000
H17101	H1710	0.586300	0.339400	0.373500
H17111	H1711	0.663400	0.346200	0.379000
C6041	C604	0.627200	0.264600	0.390100
H17121	H1712	0.606500	0.261400	0.395800
H17131	H1713	0.627800	0.280100	0.375000
C6051	C605	0.643800	0.249500	0.437600
H17141	H1714	0.655100	0.255500	0.455100
H17151	H1715	0.623400	0.245300	0.443800
C6061	C606	0.674500	0.278000	0.407400
H17161	H1716	0.676000	0.294400	0.393200
H17171	H1717	0.685900	0.283400	0.425100
H17181	H1718	0.436000	0.876400	0.911100
H17191	H1719	0.439600	0.847600	0.964400
H17201	H1720	0.533000	0.779500	0.995400
H17211	H1721	0.579400	0.765100	0.960000
C6071	C607	0.555700	0.831700	0.955200
H17221	H1722	0.565200	0.838900	0.973400
H17231	H1723	0.556800	0.847500	0.940400
N1021	N102	0.643910	0.773850	0.915420
C6081	C608	0.523000	0.824200	0.961600
H17241	H1724	0.510200	0.836100	0.948800
H17251	H1725	0.518300	0.829100	0.982200
C6091	C609	0.606800	0.844700	0.868600
H17261	H1726	0.616600	0.826900	0.861000
H17271	H1727	0.586300	0.839400	0.873500
H17281	H1728	0.663400	0.846200	0.879000
C6101	C610	0.627200	0.764600	0.890100
H17291	H1729	0.606500	0.761400	0.895800
H17301	H1730	0.627800	0.780100	0.875000
C6111	C611	0.643800	0.749500	0.937600
H17311	H1731	0.655100	0.755500	0.955100
H17321	H1732	0.623400	0.745300	0.943800
C6121	C612	0.674500	0.778000	0.907400
H17331	H1733	0.676000	0.794400	0.893200
H17341	H1734	0.685900	0.783400	0.925100
H17351	H1735	0.936000	0.376400	0.911100
H17361	H1736	0.939600	0.347600	0.964400
H17371	H1737	0.033000	0.279500	0.995400
H17381	H1738	0.079400	0.265100	0.960000
C6131	C613	0.055700	0.331700	0.955200
H17391	H1739	0.065200	0.338900	0.973400
H17401	H1740	0.056800	0.347500	0.940400
N1031	N103	0.143910	0.273850	0.915420
C6141	C614	0.023000	0.324200	0.961600
H17411	H1741	0.010200	0.336100	0.948800
H17421	H1742	0.018300	0.329100	0.982200
C6151	C615	0.106800	0.344700	0.868600
H17431	H1743	0.116600	0.326900	0.861000
H17441	H1744	0.086300	0.339400	0.873500
H17451	H1745	0.163400	0.346200	0.879000
C6161	C616	0.127200	0.264600	0.890100
H17461	H1746	0.106500	0.261400	0.895800
H17471	H1747	0.127800	0.280100	0.875000
C6171	C617	0.143800	0.249500	0.937600
H17481	H1748	0.155100	0.255500	0.955100
H17491	H1749	0.123400	0.245300	0.943800
C6181	C618	0.174500	0.278000	0.907400
H17501	H1750	0.176000	0.294400	0.893200
H17511	H1751	0.185900	0.283400	0.925100
H17521	H1752	0.936000	0.876400	0.411100
H17531	H1753	0.939600	0.847600	0.464400
H17541	H1754	0.033000	0.779500	0.495400
H17551	H1755	0.079400	0.765100	0.460000
C6191	C619	0.055700	0.831700	0.455200
H17561	H1756	0.065200	0.838900	0.473400
H17571	H1757	0.056800	0.847500	0.440400
N1041	N104	0.143910	0.773850	0.415420
C6201	C620	0.023000	0.824200	0.461600
H17581	H1758	0.010200	0.836100	0.448800
H17591	H1759	0.018300	0.829100	0.482200
C6211	C621	0.106800	0.844700	0.368600
H17601	H1760	0.116600	0.826900	0.361000
H17611	H1761	0.086300	0.839400	0.373500
H17621	H1762	0.163400	0.846200	0.379000
C6221	C622	0.127200	0.764600	0.390100
H17631	H1763	0.106500	0.761400	0.395800
H17641	H1764	0.127800	0.780100	0.375000
C6231	C623	0.143800	0.749500	0.437600
H17651	H1765	0.155100	0.755500	0.455100
H17661	H1766	0.123400	0.745300	0.443800
C6241	C624	0.174500	0.778000	0.407400
H17671	H1767	0.176000	0.794400	0.393200
H17681	H1768	0.185900	0.783400	0.425100
H17691	H1769	0.936000	0.873600	0.338900
H17701	H1770	0.939600	0.902400	0.285600
H17711	H1771	0.033000	0.970500	0.254600
H17721	H1772	0.079400	0.984900	0.290000
C6251	C625	0.055700	0.918300	0.294800
H17731	H1773	0.065200	0.911100	0.276600
H17741	H1774	0.056800	0.902500	0.309600
N1051	N105	0.143910	0.976150	0.334580
C6261	C626	0.023000	0.925800	0.288400
H17751	H1775	0.010200	0.913900	0.301200
H17761	H1776	0.018300	0.920900	0.267800
C6271	C627	0.106800	0.905300	0.381400
H17771	H1777	0.116600	0.923100	0.389000
H17781	H1778	0.086300	0.910600	0.376500
H17791	H1779	0.163400	0.903800	0.371000
C6281	C628	0.127200	0.985400	0.359900
H17801	H1780	0.106500	0.988600	0.354200
H17811	H1781	0.127800	0.969900	0.375000
C6291	C629	0.143800	0.000500	0.312400
H17821	H1782	0.155100	0.994500	0.294900
H17831	H1783	0.123400	0.004700	0.306200
C6301	C630	0.174500	0.972000	0.342600
H17841	H1784	0.176000	0.955600	0.356800
H17851	H1785	0.185900	0.966600	0.324900
H17861	H1786	0.936000	0.373600	0.838900
H17871	H1787	0.939600	0.402400	0.785600
H17881	H1788	0.033000	0.470500	0.754600
H17891	H1789	0.079400	0.484900	0.790000
C6311	C631	0.055700	0.418300	0.794800
H17901	H1790	0.065200	0.411100	0.776600
H17911	H1791	0.056800	0.402500	0.809600
N1061	N106	0.143910	0.476150	0.834580
C6321	C632	0.023000	0.425800	0.788400
H17921	H1792	0.010200	0.413900	0.801200
H17931	H1793	0.018300	0.420900	0.767800
C6331	C633	0.106800	0.405300	0.881400
H17941	H1794	0.116600	0.423100	0.889000
H17951	H1795	0.086300	0.410600	0.876500
H17961	H1796	0.163400	0.403800	0.871000
C6341	C634	0.127200	0.485400	0.859900
H17971	H1797	0.106500	0.488600	0.854200
H17981	H1798	0.127800	0.469900	0.875000
C6351	C635	0.143800	0.500500	0.812400
H17991	H1799	0.155100	0.494500	0.794900
H18001	H1800	0.123400	0.504700	0.806200
C6361	C636	0.174500	0.472000	0.842600
H18011	H1801	0.176000	0.455600	0.856800
H18021	H1802	0.185900	0.466600	0.824900
H18031	H1803	0.436000	0.873600	0.838900
H18041	H1804	0.439600	0.902400	0.785600
H18051	H1805	0.533000	0.970500	0.754600
H18061	H1806	0.579400	0.984900	0.790000
C6371	C637	0.555700	0.918300	0.794800
H18071	H1807	0.565200	0.911100	0.776600
H18081	H1808	0.556800	0.902500	0.809600
N1071	N107	0.643910	0.976150	0.834580
C6381	C638	0.523000	0.925800	0.788400
H18091	H1809	0.510200	0.913900	0.801200
H18101	H1810	0.518300	0.920900	0.767800
C6391	C639	0.606800	0.905300	0.881400
H18111	H1811	0.616600	0.923100	0.889000
H18121	H1812	0.586300	0.910600	0.876500
H18131	H1813	0.663400	0.903800	0.871000
C6401	C640	0.627200	0.985400	0.859900
H18141	H1814	0.606500	0.988600	0.854200
H18151	H1815	0.627800	0.969900	0.875000
C6411	C641	0.643800	0.000500	0.812400
H18161	H1816	0.655100	0.994500	0.794900
H18171	H1817	0.623400	0.004700	0.806200
C6421	C642	0.674500	0.972000	0.842600
H18181	H1818	0.676000	0.955600	0.856800
H18191	H1819	0.685900	0.966600	0.824900
H18201	H1820	0.436000	0.373600	0.338900
H18211	H1821	0.439600	0.402400	0.285600
H18221	H1822	0.533000	0.470500	0.254600
H18231	H1823	0.579400	0.484900	0.290000
C6431	C643	0.555700	0.418300	0.294800
H18241	H1824	0.565200	0.411100	0.276600
H18251	H1825	0.556800	0.402500	0.309600
N1081	N108	0.643910	0.476150	0.334580
C6441	C644	0.523000	0.425800	0.288400
H18261	H1826	0.510200	0.413900	0.301200
H18271	H1827	0.518300	0.420900	0.267800
C6451	C645	0.606800	0.405300	0.381400
H18281	H1828	0.616600	0.423100	0.389000
H18291	H1829	0.586300	0.410600	0.376500
H18301	H1830	0.663400	0.403800	0.371000
C6461	C646	0.627200	0.485400	0.359900
H18311	H1831	0.606500	0.488600	0.354200
H18321	H1832	0.627800	0.469900	0.375000
C6471	C647	0.643800	0.500500	0.312400
H18331	H1833	0.655100	0.494500	0.294900
H18341	H1834	0.623400	0.504700	0.306200
C6481	C648	0.674500	0.472000	0.342600
H18351	H1835	0.676000	0.455600	0.356800
H18361	H1836	0.685900	0.466600	0.324900
H18371	H1837	0.314000	0.876400	0.838900
H18381	H1838	0.310400	0.847600	0.785600
H18391	H1839	0.217000	0.779500	0.754600
H18401	H1840	0.170600	0.765100	0.790000
C6491	C649	0.194300	0.831700	0.794800
H18411	H1841	0.184800	0.838900	0.776600
H18421	H1842	0.193200	0.847500	0.809600
N1091	N109	0.106090	0.773850	0.834580
C6501	C650	0.227000	0.824200	0.788400
H18431	H1843	0.239800	0.836100	0.801200
H18441	H1844	0.231700	0.829100	0.767800
C6511	C651	0.143200	0.844700	0.881400
H18451	H1845	0.133400	0.826900	0.889000
H18461	H1846	0.163700	0.839400	0.876500
H18471	H1847	0.086600	0.846200	0.871000
C6521	C652	0.122800	0.764600	0.859900
H18481	H1848	0.143500	0.761400	0.854200
H18491	H1849	0.122200	0.780100	0.875000
C6531	C653	0.106200	0.749500	0.812400
H18501	H1850	0.094900	0.755500	0.794900
H18511	H1851	0.126600	0.745300	0.806200
C6541	C654	0.075500	0.778000	0.842600
H18521	H1852	0.074000	0.794400	0.856800
H18531	H1853	0.064100	0.783400	0.824900
H18541	H1854	0.314000	0.376400	0.338900
H18551	H1855	0.310400	0.347600	0.285600
H18561	H1856	0.217000	0.279500	0.254600
H18571	H1857	0.170600	0.265100	0.290000
C6551	C655	0.194300	0.331700	0.294800
H18581	H1858	0.184800	0.338900	0.276600
H18591	H1859	0.193200	0.347500	0.309600
N1101	N110	0.106090	0.273850	0.334580
C6561	C656	0.227000	0.324200	0.288400
H18601	H1860	0.239800	0.336100	0.301200
H18611	H1861	0.231700	0.329100	0.267800
C6571	C657	0.143200	0.344700	0.381400
H18621	H1862	0.133400	0.326900	0.389000
H18631	H1863	0.163700	0.339400	0.376500
H18641	H1864	0.086600	0.346200	0.371000
C6581	C658	0.122800	0.264600	0.359900
H18651	H1865	0.143500	0.261400	0.354200
H18661	H1866	0.122200	0.280100	0.375000
C6591	C659	0.106200	0.249500	0.312400
H18671	H1867	0.094900	0.255500	0.294900
H18681	H1868	0.126600	0.245300	0.306200
C6601	C660	0.075500	0.278000	0.342600
H18691	H1869	0.074000	0.294400	0.356800
H18701	H1870	0.064100	0.283400	0.324900
H18711	H1871	0.814000	0.876400	0.338900
H18721	H1872	0.810400	0.847600	0.285600
H18731	H1873	0.717000	0.779500	0.254600
H18741	H1874	0.670600	0.765100	0.290000
C6611	C661	0.694300	0.831700	0.294800
H18751	H1875	0.684800	0.838900	0.276600
H18761	H1876	0.693200	0.847500	0.309600
N1111	N111	0.606090	0.773850	0.334580
C6621	C662	0.727000	0.824200	0.288400
H18771	H1877	0.739800	0.836100	0.301200
H18781	H1878	0.731700	0.829100	0.267800
C6631	C663	0.643200	0.844700	0.381400
H18791	H1879	0.633400	0.826900	0.389000
H18801	H1880	0.663700	0.839400	0.376500
H18811	H1881	0.586600	0.846200	0.371000
C6641	C664	0.622800	0.764600	0.359900
H18821	H1882	0.643500	0.761400	0.354200
H18831	H1883	0.622200	0.780100	0.375000
C6651	C665	0.606200	0.749500	0.312400
H18841	H1884	0.594900	0.755500	0.294900
H18851	H1885	0.626600	0.745300	0.306200
C6661	C666	0.575500	0.778000	0.342600
H18861	H1886	0.574000	0.794400	0.356800
H18871	H1887	0.564100	0.783400	0.324900
H18881	H1888	0.814000	0.376400	0.838900
H18891	H1889	0.810400	0.347600	0.785600
H18901	H1890	0.717000	0.279500	0.754600
H18911	H1891	0.670600	0.265100	0.790000
C6671	C667	0.694300	0.331700	0.794800
H18921	H1892	0.684800	0.338900	0.776600
H18931	H1893	0.693200	0.347500	0.809600
N1121	N112	0.606090	0.273850	0.834580
C6681	C668	0.727000	0.324200	0.788400
H18941	H1894	0.739800	0.336100	0.801200
H18951	H1895	0.731700	0.329100	0.767800
C6691	C669	0.643200	0.344700	0.881400
H18961	H1896	0.633400	0.326900	0.889000
H18971	H1897	0.663700	0.339400	0.876500
H18981	H1898	0.586600	0.346200	0.871000
C6701	C670	0.622800	0.264600	0.859900
H18991	H1899	0.643500	0.261400	0.854200
H19001	H1900	0.622200	0.280100	0.875000
C6711	C671	0.606200	0.249500	0.812400
H19011	H1901	0.594900	0.255500	0.794900
H19021	H1902	0.626600	0.245300	0.806200
C6721	C672	0.575500	0.278000	0.842600
H19031	H1903	0.574000	0.294400	0.856800
H19041	H1904	0.564100	0.283400	0.824900
H19051	H1905	0.911100	0.814000	0.373600
H19061	H1906	0.964400	0.810400	0.402400
H19071	H1907	0.995400	0.717000	0.470500
H19081	H1908	0.960000	0.670600	0.484900
C6731	C673	0.955200	0.694300	0.418300
H19091	H1909	0.973400	0.684800	0.411100
H19101	H1910	0.940400	0.693200	0.402500
N1131	N113	0.915420	0.606090	0.476150
C6741	C674	0.961600	0.727000	0.425800
H19111	H1911	0.948800	0.739800	0.413900
H19121	H1912	0.982200	0.731700	0.420900
C6751	C675	0.868600	0.643200	0.405300
H19131	H1913	0.861000	0.633400	0.423100
H19141	H1914	0.873500	0.663700	0.410600
H19151	H1915	0.879000	0.586600	0.403800
C6761	C676	0.890100	0.622800	0.485400
H19161	H1916	0.895800	0.643500	0.488600
H19171	H1917	0.875000	0.622200	0.469900
C6771	C677	0.937600	0.606200	0.500500
H19181	H1918	0.955100	0.594900	0.494500
H19191	H1919	0.943800	0.626600	0.504700
C6781	C678	0.907400	0.575500	0.472000
H19201	H1920	0.893200	0.574000	0.455600
H19211	H1921	0.925100	0.564100	0.466600
H19221	H1922	0.911100	0.314000	0.873600
H19231	H1923	0.964400	0.310400	0.902400
H19241	H1924	0.995400	0.217000	0.970500
H19251	H1925	0.960000	0.170600	0.984900
C6791	C679	0.955200	0.194300	0.918300
H19261	H1926	0.973400	0.184800	0.911100
H19271	H1927	0.940400	0.193200	0.902500
N1141	N114	0.915420	0.106090	0.976150
C6801	C680	0.961600	0.227000	0.925800
H19281	H1928	0.948800	0.239800	0.913900
H19291	H1929	0.982200	0.231700	0.920900
C6811	C681	0.868600	0.143200	0.905300
H19301	H1930	0.861000	0.133400	0.923100
H19311	H1931	0.873500	0.163700	0.910600
H19321	H1932	0.879000	0.086600	0.903800
C6821	C682	0.890100	0.122800	0.985400
H19331	H1933	0.895800	0.143500	0.988600
H19341	H1934	0.875000	0.122200	0.969900
C6831	C683	0.937600	0.106200	0.000500
H19351	H1935	0.955100	0.094900	0.994500
H19361	H1936	0.943800	0.126600	0.004700
C6841	C684	0.907400	0.075500	0.972000
H19371	H1937	0.893200	0.074000	0.955600
H19381	H1938	0.925100	0.064100	0.966600
H19391	H1939	0.411100	0.814000	0.873600
H19401	H1940	0.464400	0.810400	0.902400
H19411	H1941	0.495400	0.717000	0.970500
H19421	H1942	0.460000	0.670600	0.984900
C6851	C685	0.455200	0.694300	0.918300
H19431	H1943	0.473400	0.684800	0.911100
H19441	H1944	0.440400	0.693200	0.902500
N1151	N115	0.415420	0.606090	0.976150
C6861	C686	0.461600	0.727000	0.925800
H19451	H1945	0.448800	0.739800	0.913900
H19461	H1946	0.482200	0.731700	0.920900
C6871	C687	0.368600	0.643200	0.905300
H19471	H1947	0.361000	0.633400	0.923100
H19481	H1948	0.373500	0.663700	0.910600
H19491	H1949	0.379000	0.586600	0.903800
C6881	C688	0.390100	0.622800	0.985400
H19501	H1950	0.395800	0.643500	0.988600
H19511	H1951	0.375000	0.622200	0.969900
C6891	C689	0.437600	0.606200	0.000500
H19521	H1952	0.455100	0.594900	0.994500
H19531	H1953	0.443800	0.626600	0.004700
C6901	C690	0.407400	0.575500	0.972000
H19541	H1954	0.393200	0.574000	0.955600
H19551	H1955	0.425100	0.564100	0.966600
H19561	H1956	0.411100	0.314000	0.373600
H19571	H1957	0.464400	0.310400	0.402400
H19581	H1958	0.495400	0.217000	0.470500
H19591	H1959	0.460000	0.170600	0.484900
C6911	C691	0.455200	0.194300	0.418300
H19601	H1960	0.473400	0.184800	0.411100
H19611	H1961	0.440400	0.193200	0.402500
N1161	N116	0.415420	0.106090	0.476150
C6921	C692	0.461600	0.227000	0.425800
H19621	H1962	0.448800	0.239800	0.413900
H19631	H1963	0.482200	0.231700	0.420900
C6931	C693	0.368600	0.143200	0.405300
H19641	H1964	0.361000	0.133400	0.423100
H19651	H1965	0.373500	0.163700	0.410600
H19661	H1966	0.379000	0.086600	0.403800
C6941	C694	0.390100	0.122800	0.485400
H19671	H1967	0.395800	0.143500	0.488600
H19681	H1968	0.375000	0.122200	0.469900
C6951	C695	0.437600	0.106200	0.500500
H19691	H1969	0.455100	0.094900	0.494500
H19701	H1970	0.443800	0.126600	0.504700
C6961	C696	0.407400	0.075500	0.472000
H19711	H1971	0.393200	0.074000	0.455600
H19721	H1972	0.425100	0.064100	0.466600
H19731	H1973	0.411100	0.436000	0.376400
H19741	H1974	0.464400	0.439600	0.347600
H19751	H1975	0.495400	0.533000	0.279500
H19761	H1976	0.460000	0.579400	0.265100
C6971	C697	0.455200	0.555700	0.331700
H19771	H1977	0.473400	0.565200	0.338900
H19781	H1978	0.440400	0.556800	0.347500
N1171	N117	0.415420	0.643910	0.273850
C6981	C698	0.461600	0.523000	0.324200
H19791	H1979	0.448800	0.510200	0.336100
H19801	H1980	0.482200	0.518300	0.329100
C6991	C699	0.368600	0.606800	0.344700
H19811	H1981	0.361000	0.616600	0.326900
H19821	H1982	0.373500	0.586300	0.339400
H19831	H1983	0.379000	0.663400	0.346200
C7001	C700	0.390100	0.627200	0.264600
H19841	H1984	0.395800	0.606500	0.261400
H19851	H1985	0.375000	0.627800	0.280100
C7011	C701	0.437600	0.643800	0.249500
H19861	H1986	0.455100	0.655100	0.255500
H19871	H1987	0.443800	0.623400	0.245300
C7021	C702	0.407400	0.674500	0.278000
H19881	H1988	0.393200	0.676000	0.294400
H19891	H1989	0.425100	0.685900	0.283400
H19901	H1990	0.411100	0.936000	0.876400
H19911	H1991	0.464400	0.939600	0.847600
H19921	H1992	0.495400	0.033000	0.779500
H19931	H1993	0.460000	0.079400	0.765100
C7031	C703	0.455200	0.055700	0.831700
H19941	H1994	0.473400	0.065200	0.838900
H19951	H1995	0.440400	0.056800	0.847500
N1181	N118	0.415420	0.143910	0.773850
C7041	C704	0.461600	0.023000	0.824200
H19961	H1996	0.448800	0.010200	0.836100
H19971	H1997	0.482200	0.018300	0.829100
C7051	C705	0.368600	0.106800	0.844700
H19981	H1998	0.361000	0.116600	0.826900
H19991	H1999	0.373500	0.086300	0.839400
H20001	H2000	0.379000	0.163400	0.846200
C7061	C706	0.390100	0.127200	0.764600
H20011	H2001	0.395800	0.106500	0.761400
H20021	H2002	0.375000	0.127800	0.780100
C7071	C707	0.437600	0.143800	0.749500
H20031	H2003	0.455100	0.155100	0.755500
H20041	H2004	0.443800	0.123400	0.745300
C7081	C708	0.407400	0.174500	0.778000
H20051	H2005	0.393200	0.176000	0.794400
H20061	H2006	0.425100	0.185900	0.783400
H20071	H2007	0.911100	0.436000	0.876400
H20081	H2008	0.964400	0.439600	0.847600
H20091	H2009	0.995400	0.533000	0.779500
H20101	H2010	0.960000	0.579400	0.765100
C7091	C709	0.955200	0.555700	0.831700
H20111	H2011	0.973400	0.565200	0.838900
H20121	H2012	0.940400	0.556800	0.847500
N1191	N119	0.915420	0.643910	0.773850
C7101	C710	0.961600	0.523000	0.824200
H20131	H2013	0.948800	0.510200	0.836100
H20141	H2014	0.982200	0.518300	0.829100
C7111	C711	0.868600	0.606800	0.844700
H20151	H2015	0.861000	0.616600	0.826900
H20161	H2016	0.873500	0.586300	0.839400
H20171	H2017	0.879000	0.663400	0.846200
C7121	C712	0.890100	0.627200	0.764600
H20181	H2018	0.895800	0.606500	0.761400
H20191	H2019	0.875000	0.627800	0.780100
C7131	C713	0.937600	0.643800	0.749500
H20201	H2020	0.955100	0.655100	0.755500
H20211	H2021	0.943800	0.623400	0.745300
C7141	C714	0.907400	0.674500	0.778000
H20221	H2022	0.893200	0.676000	0.794400
H20231	H2023	0.925100	0.685900	0.783400
H20241	H2024	0.911100	0.936000	0.376400
H20251	H2025	0.964400	0.939600	0.347600
H20261	H2026	0.995400	0.033000	0.279500
H20271	H2027	0.960000	0.079400	0.265100
C7151	C715	0.955200	0.055700	0.331700
H20281	H2028	0.973400	0.065200	0.338900
H20291	H2029	0.940400	0.056800	0.347500
N1201	N120	0.915420	0.143910	0.273850
C7161	C716	0.961600	0.023000	0.324200
H20301	H2030	0.948800	0.010200	0.336100
H20311	H2031	0.982200	0.018300	0.329100
C7171	C717	0.868600	0.106800	0.344700
H20321	H2032	0.861000	0.116600	0.326900
H20331	H2033	0.873500	0.086300	0.339400
H20341	H2034	0.879000	0.163400	0.346200
C7181	C718	0.890100	0.127200	0.264600
H20351	H2035	0.895800	0.106500	0.261400
H20361	H2036	0.875000	0.127800	0.280100
C7191	C719	0.937600	0.143800	0.249500
H20371	H2037	0.955100	0.155100	0.255500
H20381	H2038	0.943800	0.123400	0.245300
C7201	C720	0.907400	0.174500	0.278000
H20391	H2039	0.893200	0.176000	0.294400
H20401	H2040	0.925100	0.185900	0.283400
H20411	H2041	0.338900	0.936000	0.873600
H20421	H2042	0.285600	0.939600	0.902400
H20431	H2043	0.254600	0.033000	0.970500
H20441	H2044	0.290000	0.079400	0.984900
C7211	C721	0.294800	0.055700	0.918300
H20451	H2045	0.276600	0.065200	0.911100
H20461	H2046	0.309600	0.056800	0.902500
N1211	N121	0.334580	0.143910	0.976150
C7221	C722	0.288400	0.023000	0.925800
H20471	H2047	0.301200	0.010200	0.913900
H20481	H2048	0.267800	0.018300	0.920900
C7231	C723	0.381400	0.106800	0.905300
H20491	H2049	0.389000	0.116600	0.923100
H20501	H2050	0.376500	0.086300	0.910600
H20511	H2051	0.371000	0.163400	0.903800
C7241	C724	0.359900	0.127200	0.985400
H20521	H2052	0.354200	0.106500	0.988600
H20531	H2053	0.375000	0.127800	0.969900
C7251	C725	0.312400	0.143800	0.000500
H20541	H2054	0.294900	0.155100	0.994500
H20551	H2055	0.306200	0.123400	0.004700
C7261	C726	0.342600	0.174500	0.972000
H20561	H2056	0.356800	0.176000	0.955600
H20571	H2057	0.324900	0.185900	0.966600
H20581	H2058	0.338900	0.436000	0.373600
H20591	H2059	0.285600	0.439600	0.402400
H20601	H2060	0.254600	0.533000	0.470500
H20611	H2061	0.290000	0.579400	0.484900
C7271	C727	0.294800	0.555700	0.418300
H20621	H2062	0.276600	0.565200	0.411100
H20631	H2063	0.309600	0.556800	0.402500
N1221	N122	0.334580	0.643910	0.476150
C7281	C728	0.288400	0.523000	0.425800
H20641	H2064	0.301200	0.510200	0.413900
H20651	H2065	0.267800	0.518300	0.420900
C7291	C729	0.381400	0.606800	0.405300
H20661	H2066	0.389000	0.616600	0.423100
H20671	H2067	0.376500	0.586300	0.410600
H20681	H2068	0.371000	0.663400	0.403800
C7301	C730	0.359900	0.627200	0.485400
H20691	H2069	0.354200	0.606500	0.488600
H20701	H2070	0.375000	0.627800	0.469900
C7311	C731	0.312400	0.643800	0.500500
H20711	H2071	0.294900	0.655100	0.494500
H20721	H2072	0.306200	0.623400	0.504700
C7321	C732	0.342600	0.674500	0.472000
H20731	H2073	0.356800	0.676000	0.455600
H20741	H2074	0.324900	0.685900	0.466600
H20751	H2075	0.838900	0.936000	0.373600
H20761	H2076	0.785600	0.939600	0.402400
H20771	H2077	0.754600	0.033000	0.470500
H20781	H2078	0.790000	0.079400	0.484900
C7331	C733	0.794800	0.055700	0.418300
H20791	H2079	0.776600	0.065200	0.411100
H20801	H2080	0.809600	0.056800	0.402500
N1231	N123	0.834580	0.143910	0.476150
C7341	C734	0.788400	0.023000	0.425800
H20811	H2081	0.801200	0.010200	0.413900
H20821	H2082	0.767800	0.018300	0.420900
C7351	C735	0.881400	0.106800	0.405300
H20831	H2083	0.889000	0.116600	0.423100
H20841	H2084	0.876500	0.086300	0.410600
H20851	H2085	0.871000	0.163400	0.403800
C7361	C736	0.859900	0.127200	0.485400
H20861	H2086	0.854200	0.106500	0.488600
H20871	H2087	0.875000	0.127800	0.469900
C7371	C737	0.812400	0.143800	0.500500
H20881	H2088	0.794900	0.155100	0.494500
H20891	H2089	0.806200	0.123400	0.504700
C7381	C738	0.842600	0.174500	0.472000
H20901	H2090	0.856800	0.176000	0.455600
H20911	H2091	0.824900	0.185900	0.466600
H20921	H2092	0.838900	0.436000	0.873600
H20931	H2093	0.785600	0.439600	0.902400
H20941	H2094	0.754600	0.533000	0.970500
H20951	H2095	0.790000	0.579400	0.984900
C7391	C739	0.794800	0.555700	0.918300
H20961	H2096	0.776600	0.565200	0.911100
H20971	H2097	0.809600	0.556800	0.902500
N1241	N124	0.834580	0.643910	0.976150
C7401	C740	0.788400	0.523000	0.925800
H20981	H2098	0.801200	0.510200	0.913900
H20991	H2099	0.767800	0.518300	0.920900
C7411	C741	0.881400	0.606800	0.905300
H21001	H2100	0.889000	0.616600	0.923100
H21011	H2101	0.876500	0.586300	0.910600
H21021	H2102	0.871000	0.663400	0.903800
C7421	C742	0.859900	0.627200	0.985400
H21031	H2103	0.854200	0.606500	0.988600
H21041	H2104	0.875000	0.627800	0.969900
C7431	C743	0.812400	0.643800	0.000500
H21051	H2105	0.794900	0.655100	0.994500
H21061	H2106	0.806200	0.623400	0.004700
C7441	C744	0.842600	0.674500	0.972000
H21071	H2107	0.856800	0.676000	0.955600
H21081	H2108	0.824900	0.685900	0.966600
H21091	H2109	0.838900	0.314000	0.876400
H21101	H2110	0.785600	0.310400	0.847600
H21111	H2111	0.754600	0.217000	0.779500
H21121	H2112	0.790000	0.170600	0.765100
C7451	C745	0.794800	0.194300	0.831700
H21131	H2113	0.776600	0.184800	0.838900
H21141	H2114	0.809600	0.193200	0.847500
N1251	N125	0.834580	0.106090	0.773850
C7461	C746	0.788400	0.227000	0.824200
H21151	H2115	0.801200	0.239800	0.836100
H21161	H2116	0.767800	0.231700	0.829100
C7471	C747	0.881400	0.143200	0.844700
H21171	H2117	0.889000	0.133400	0.826900
H21181	H2118	0.876500	0.163700	0.839400
H21191	H2119	0.871000	0.086600	0.846200
C7481	C748	0.859900	0.122800	0.764600
H21201	H2120	0.854200	0.143500	0.761400
H21211	H2121	0.875000	0.122200	0.780100
C7491	C749	0.812400	0.106200	0.749500
H21221	H2122	0.794900	0.094900	0.755500
H21231	H2123	0.806200	0.126600	0.745300
C7501	C750	0.842600	0.075500	0.778000
H21241	H2124	0.856800	0.074000	0.794400
H21251	H2125	0.824900	0.064100	0.783400
H21261	H2126	0.838900	0.814000	0.376400
H21271	H2127	0.785600	0.810400	0.347600
H21281	H2128	0.754600	0.717000	0.279500
H21291	H2129	0.790000	0.670600	0.265100
C7511	C751	0.794800	0.694300	0.331700
H21301	H2130	0.776600	0.684800	0.338900
H21311	H2131	0.809600	0.693200	0.347500
N1261	N126	0.834580	0.606090	0.273850
C7521	C752	0.788400	0.727000	0.324200
H21321	H2132	0.801200	0.739800	0.336100
H21331	H2133	0.767800	0.731700	0.329100
C7531	C753	0.881400	0.643200	0.344700
H21341	H2134	0.889000	0.633400	0.326900
H21351	H2135	0.876500	0.663700	0.339400
H21361	H2136	0.871000	0.586600	0.346200
C7541	C754	0.859900	0.622800	0.264600
H21371	H2137	0.854200	0.643500	0.261400
H21381	H2138	0.875000	0.622200	0.280100
C7551	C755	0.812400	0.606200	0.249500
H21391	H2139	0.794900	0.594900	0.255500
H21401	H2140	0.806200	0.626600	0.245300
C7561	C756	0.842600	0.575500	0.278000
H21411	H2141	0.856800	0.574000	0.294400
H21421	H2142	0.824900	0.564100	0.283400
H21431	H2143	0.338900	0.314000	0.376400
H21441	H2144	0.285600	0.310400	0.347600
H21451	H2145	0.254600	0.217000	0.279500
H21461	H2146	0.290000	0.170600	0.265100
C7571	C757	0.294800	0.194300	0.331700
H21471	H2147	0.276600	0.184800	0.338900
H21481	H2148	0.309600	0.193200	0.347500
N1271	N127	0.334580	0.106090	0.273850
C7581	C758	0.288400	0.227000	0.324200
H21491	H2149	0.301200	0.239800	0.336100
H21501	H2150	0.267800	0.231700	0.329100
C7591	C759	0.381400	0.143200	0.344700
H21511	H2151	0.389000	0.133400	0.326900
H21521	H2152	0.376500	0.163700	0.339400
H21531	H2153	0.371000	0.086600	0.346200
C7601	C760	0.359900	0.122800	0.264600
H21541	H2154	0.354200	0.143500	0.261400
H21551	H2155	0.375000	0.122200	0.280100
C7611	C761	0.312400	0.106200	0.249500
H21561	H2156	0.294900	0.094900	0.255500
H21571	H2157	0.306200	0.126600	0.245300
C7621	C762	0.342600	0.075500	0.278000
H21581	H2158	0.356800	0.074000	0.294400
H21591	H2159	0.324900	0.064100	0.283400
H21601	H2160	0.338900	0.814000	0.876400
H21611	H2161	0.285600	0.810400	0.847600
H21621	H2162	0.254600	0.717000	0.779500
H21631	H2163	0.290000	0.670600	0.765100
C7631	C763	0.294800	0.694300	0.831700
H21641	H2164	0.276600	0.684800	0.838900
H21651	H2165	0.309600	0.693200	0.847500
N1281	N128	0.334580	0.606090	0.773850
C7641	C764	0.288400	0.727000	0.824200
H21661	H2166	0.301200	0.739800	0.836100
H21671	H2167	0.267800	0.731700	0.829100
C7651	C765	0.381400	0.643200	0.844700
H21681	H2168	0.389000	0.633400	0.826900
H21691	H2169	0.376500	0.663700	0.839400
H21701	H2170	0.371000	0.586600	0.846200
C7661	C766	0.359900	0.622800	0.764600
H21711	H2171	0.354200	0.643500	0.761400
H21721	H2172	0.375000	0.622200	0.780100
C7671	C767	0.312400	0.606200	0.749500
H21731	H2173	0.294900	0.594900	0.755500
H21741	H2174	0.306200	0.626600	0.745300
C7681	C768	0.342600	0.575500	0.778000
H21751	H2175	0.356800	0.574000	0.794400
H21761	H2176	0.324900	0.564100	0.783400
H21771	H2177	0.373600	0.911100	0.814000
H21781	H2178	0.402400	0.964400	0.810400
H21791	H2179	0.470500	0.995400	0.717000
H21801	H2180	0.484900	0.960000	0.670600
C7691	C769	0.418300	0.955200	0.694300
H21811	H2181	0.411100	0.973400	0.684800
H21821	H2182	0.402500	0.940400	0.693200
N1291	N129	0.476150	0.915420	0.606090
C7701	C770	0.425800	0.961600	0.727000
H21831	H2183	0.413900	0.948800	0.739800
H21841	H2184	0.420900	0.982200	0.731700
C7711	C771	0.405300	0.868600	0.643200
H21851	H2185	0.423100	0.861000	0.633400
H21861	H2186	0.410600	0.873500	0.663700
H21871	H2187	0.403800	0.879000	0.586600
C7721	C772	0.485400	0.890100	0.622800
H21881	H2188	0.488600	0.895800	0.643500
H21891	H2189	0.469900	0.875000	0.622200
C7731	C773	0.500500	0.937600	0.606200
H21901	H2190	0.494500	0.955100	0.594900
H21911	H2191	0.504700	0.943800	0.626600
C7741	C774	0.472000	0.907400	0.575500
H21921	H2192	0.455600	0.893200	0.574000
H21931	H2193	0.466600	0.925100	0.564100
H21941	H2194	0.373600	0.411100	0.314000
H21951	H2195	0.402400	0.464400	0.310400
H21961	H2196	0.470500	0.495400	0.217000
H21971	H2197	0.484900	0.460000	0.170600
C7751	C775	0.418300	0.455200	0.194300
H21981	H2198	0.411100	0.473400	0.184800
H21991	H2199	0.402500	0.440400	0.193200
N1301	N130	0.476150	0.415420	0.106090
C7761	C776	0.425800	0.461600	0.227000
H22001	H2200	0.413900	0.448800	0.239800
H22011	H2201	0.420900	0.482200	0.231700
C7771	C777	0.405300	0.368600	0.143200
H22021	H2202	0.423100	0.361000	0.133400
H22031	H2203	0.410600	0.373500	0.163700
H22041	H2204	0.403800	0.379000	0.086600
C7781	C778	0.485400	0.390100	0.122800
H22051	H2205	0.488600	0.395800	0.143500
H22061	H2206	0.469900	0.375000	0.122200
C7791	C779	0.500500	0.437600	0.106200
H22071	H2207	0.494500	0.455100	0.094900
H22081	H2208	0.504700	0.443800	0.126600
C7801	C780	0.472000	0.407400	0.075500
H22091	H2209	0.455600	0.393200	0.074000
H22101	H2210	0.466600	0.425100	0.064100
H22111	H2211	0.873600	0.911100	0.314000
H22121	H2212	0.902400	0.964400	0.310400
H22131	H2213	0.970500	0.995400	0.217000
H22141	H2214	0.984900	0.960000	0.170600
C7811	C781	0.918300	0.955200	0.194300
H22151	H2215	0.911100	0.973400	0.184800
H22161	H2216	0.902500	0.940400	0.193200
N1311	N131	0.976150	0.915420	0.106090
C7821	C782	0.925800	0.961600	0.227000
H22171	H2217	0.913900	0.948800	0.239800
H22181	H2218	0.920900	0.982200	0.231700
C7831	C783	0.905300	0.868600	0.143200
H22191	H2219	0.923100	0.861000	0.133400
H22201	H2220	0.910600	0.873500	0.163700
H22211	H2221	0.903800	0.879000	0.086600
C7841	C784	0.985400	0.890100	0.122800
H22221	H2222	0.988600	0.895800	0.143500
H22231	H2223	0.969900	0.875000	0.122200
C7851	C785	0.000500	0.937600	0.106200
H22241	H2224	0.994500	0.955100	0.094900
H22251	H2225	0.004700	0.943800	0.126600
C7861	C786	0.972000	0.907400	0.075500
H22261	H2226	0.955600	0.893200	0.074000
H22271	H2227	0.966600	0.925100	0.064100
H22281	H2228	0.873600	0.411100	0.814000
H22291	H2229	0.902400	0.464400	0.810400
H22301	H2230	0.970500	0.495400	0.717000
H22311	H2231	0.984900	0.460000	0.670600
C7871	C787	0.918300	0.455200	0.694300
H22321	H2232	0.911100	0.473400	0.684800
H22331	H2233	0.902500	0.440400	0.693200
N1321	N132	0.976150	0.415420	0.606090
C7881	C788	0.925800	0.461600	0.727000
H22341	H2234	0.913900	0.448800	0.739800
H22351	H2235	0.920900	0.482200	0.731700
C7891	C789	0.905300	0.368600	0.643200
H22361	H2236	0.923100	0.361000	0.633400
H22371	H2237	0.910600	0.373500	0.663700
H22381	H2238	0.903800	0.379000	0.586600
C7901	C790	0.985400	0.390100	0.622800
H22391	H2239	0.988600	0.395800	0.643500
H22401	H2240	0.969900	0.375000	0.622200
C7911	C791	0.000500	0.437600	0.606200
H22411	H2241	0.994500	0.455100	0.594900
H22421	H2242	0.004700	0.443800	0.626600
C7921	C792	0.972000	0.407400	0.575500
H22431	H2243	0.955600	0.393200	0.574000
H22441	H2244	0.966600	0.425100	0.564100
H22451	H2245	0.376400	0.411100	0.436000
H22461	H2246	0.347600	0.464400	0.439600
H22471	H2247	0.279500	0.495400	0.533000
H22481	H2248	0.265100	0.460000	0.579400
C7931	C793	0.331700	0.455200	0.555700
H22491	H2249	0.338900	0.473400	0.565200
H22501	H2250	0.347500	0.440400	0.556800
N1331	N133	0.273850	0.415420	0.643910
C7941	C794	0.324200	0.461600	0.523000
H22511	H2251	0.336100	0.448800	0.510200
H22521	H2252	0.329100	0.482200	0.518300
C7951	C795	0.344700	0.368600	0.606800
H22531	H2253	0.326900	0.361000	0.616600
H22541	H2254	0.339400	0.373500	0.586300
H22551	H2255	0.346200	0.379000	0.663400
C7961	C796	0.264600	0.390100	0.627200
H22561	H2256	0.261400	0.395800	0.606500
H22571	H2257	0.280100	0.375000	0.627800
C7971	C797	0.249500	0.437600	0.643800
H22581	H2258	0.255500	0.455100	0.655100
H22591	H2259	0.245300	0.443800	0.623400
C7981	C798	0.278000	0.407400	0.674500
H22601	H2260	0.294400	0.393200	0.676000
H22611	H2261	0.283400	0.425100	0.685900
H22621	H2262	0.376400	0.911100	0.936000
H22631	H2263	0.347600	0.964400	0.939600
H22641	H2264	0.279500	0.995400	0.033000
H22651	H2265	0.265100	0.960000	0.079400
C7991	C799	0.331700	0.955200	0.055700
H22661	H2266	0.338900	0.973400	0.065200
H22671	H2267	0.347500	0.940400	0.056800
N1341	N134	0.273850	0.915420	0.143910
C8001	C800	0.324200	0.961600	0.023000
H22681	H2268	0.336100	0.948800	0.010200
H22691	H2269	0.329100	0.982200	0.018300
C8011	C801	0.344700	0.868600	0.106800
H22701	H2270	0.326900	0.861000	0.116600
H22711	H2271	0.339400	0.873500	0.086300
H22721	H2272	0.346200	0.879000	0.163400
C8021	C802	0.264600	0.890100	0.127200
H22731	H2273	0.261400	0.895800	0.106500
H22741	H2274	0.280100	0.875000	0.127800
C8031	C803	0.249500	0.937600	0.143800
H22751	H2275	0.255500	0.955100	0.155100
H22761	H2276	0.245300	0.943800	0.123400
C8041	C804	0.278000	0.907400	0.174500
H22771	H2277	0.294400	0.893200	0.176000
H22781	H2278	0.283400	0.925100	0.185900
H22791	H2279	0.876400	0.411100	0.936000
H22801	H2280	0.847600	0.464400	0.939600
H22811	H2281	0.779500	0.495400	0.033000
H22821	H2282	0.765100	0.460000	0.079400
C8051	C805	0.831700	0.455200	0.055700
H22831	H2283	0.838900	0.473400	0.065200
H22841	H2284	0.847500	0.440400	0.056800
N1351	N135	0.773850	0.415420	0.143910
C8061	C806	0.824200	0.461600	0.023000
H22851	H2285	0.836100	0.448800	0.010200
H22861	H2286	0.829100	0.482200	0.018300
C8071	C807	0.844700	0.368600	0.106800
H22871	H2287	0.826900	0.361000	0.116600
H22881	H2288	0.839400	0.373500	0.086300
H22891	H2289	0.846200	0.379000	0.163400
C8081	C808	0.764600	0.390100	0.127200
H22901	H2290	0.761400	0.395800	0.106500
H22911	H2291	0.780100	0.375000	0.127800
C8091	C809	0.749500	0.437600	0.143800
H22921	H2292	0.755500	0.455100	0.155100
H22931	H2293	0.745300	0.443800	0.123400
C8101	C810	0.778000	0.407400	0.174500
H22941	H2294	0.794400	0.393200	0.176000
H22951	H2295	0.783400	0.425100	0.185900
H22961	H2296	0.876400	0.911100	0.436000
H22971	H2297	0.847600	0.964400	0.439600
H22981	H2298	0.779500	0.995400	0.533000
H22991	H2299	0.765100	0.960000	0.579400
C8111	C811	0.831700	0.955200	0.555700
H23001	H2300	0.838900	0.973400	0.565200
H23011	H2301	0.847500	0.940400	0.556800
N1361	N136	0.773850	0.915420	0.643910
C8121	C812	0.824200	0.961600	0.523000
H23021	H2302	0.836100	0.948800	0.510200
H23031	H2303	0.829100	0.982200	0.518300
C8131	C813	0.844700	0.868600	0.606800
H23041	H2304	0.826900	0.861000	0.616600
H23051	H2305	0.839400	0.873500	0.586300
H23061	H2306	0.846200	0.879000	0.663400
C8141	C814	0.764600	0.890100	0.627200
H23071	H2307	0.761400	0.895800	0.606500
H23081	H2308	0.780100	0.875000	0.627800
C8151	C815	0.749500	0.937600	0.643800
H23091	H2309	0.755500	0.955100	0.655100
H23101	H2310	0.745300	0.943800	0.623400
C8161	C816	0.778000	0.907400	0.674500
H23111	H2311	0.794400	0.893200	0.676000
H23121	H2312	0.783400	0.925100	0.685900
H23131	H2313	0.873600	0.338900	0.936000
H23141	H2314	0.902400	0.285600	0.939600
H23151	H2315	0.970500	0.254600	0.033000
H23161	H2316	0.984900	0.290000	0.079400
C8171	C817	0.918300	0.294800	0.055700
H23171	H2317	0.911100	0.276600	0.065200
H23181	H2318	0.902500	0.309600	0.056800
N1371	N137	0.976150	0.334580	0.143910
C8181	C818	0.925800	0.288400	0.023000
H23191	H2319	0.913900	0.301200	0.010200
H23201	H2320	0.920900	0.267800	0.018300
C8191	C819	0.905300	0.381400	0.106800
H23211	H2321	0.923100	0.389000	0.116600
H23221	H2322	0.910600	0.376500	0.086300
H23231	H2323	0.903800	0.371000	0.163400
C8201	C820	0.985400	0.359900	0.127200
H23241	H2324	0.988600	0.354200	0.106500
H23251	H2325	0.969900	0.375000	0.127800
C8211	C821	0.000500	0.312400	0.143800
H23261	H2326	0.994500	0.294900	0.155100
H23271	H2327	0.004700	0.306200	0.123400
C8221	C822	0.972000	0.342600	0.174500
H23281	H2328	0.955600	0.356800	0.176000
H23291	H2329	0.966600	0.324900	0.185900
H23301	H2330	0.873600	0.838900	0.436000
H23311	H2331	0.902400	0.785600	0.439600
H23321	H2332	0.970500	0.754600	0.533000
H23331	H2333	0.984900	0.790000	0.579400
C8231	C823	0.918300	0.794800	0.555700
H23341	H2334	0.911100	0.776600	0.565200
H23351	H2335	0.902500	0.809600	0.556800
N1381	N138	0.976150	0.834580	0.643910
C8241	C824	0.925800	0.788400	0.523000
H23361	H2336	0.913900	0.801200	0.510200
H23371	H2337	0.920900	0.767800	0.518300
C8251	C825	0.905300	0.881400	0.606800
H23381	H2338	0.923100	0.889000	0.616600
H23391	H2339	0.910600	0.876500	0.586300
H23401	H2340	0.903800	0.871000	0.663400
C8261	C826	0.985400	0.859900	0.627200
H23411	H2341	0.988600	0.854200	0.606500
H23421	H2342	0.969900	0.875000	0.627800
C8271	C827	0.000500	0.812400	0.643800
H23431	H2343	0.994500	0.794900	0.655100
H23441	H2344	0.004700	0.806200	0.623400
C8281	C828	0.972000	0.842600	0.674500
H23451	H2345	0.955600	0.856800	0.676000
H23461	H2346	0.966600	0.824900	0.685900
H23471	H2347	0.373600	0.338900	0.436000
H23481	H2348	0.402400	0.285600	0.439600
H23491	H2349	0.470500	0.254600	0.533000
H23501	H2350	0.484900	0.290000	0.579400
C8291	C829	0.418300	0.294800	0.555700
H23511	H2351	0.411100	0.276600	0.565200
H23521	H2352	0.402500	0.309600	0.556800
N1391	N139	0.476150	0.334580	0.643910
C8301	C830	0.425800	0.288400	0.523000
H23531	H2353	0.413900	0.301200	0.510200
H23541	H2354	0.420900	0.267800	0.518300
C8311	C831	0.405300	0.381400	0.606800
H23551	H2355	0.423100	0.389000	0.616600
H23561	H2356	0.410600	0.376500	0.586300
H23571	H2357	0.403800	0.371000	0.663400
C8321	C832	0.485400	0.359900	0.627200
H23581	H2358	0.488600	0.354200	0.606500
H23591	H2359	0.469900	0.375000	0.627800
C8331	C833	0.500500	0.312400	0.643800
H23601	H2360	0.494500	0.294900	0.655100
H23611	H2361	0.504700	0.306200	0.623400
C8341	C834	0.472000	0.342600	0.674500
H23621	H2362	0.455600	0.356800	0.676000
H23631	H2363	0.466600	0.324900	0.685900
H23641	H2364	0.373600	0.838900	0.936000
H23651	H2365	0.402400	0.785600	0.939600
H23661	H2366	0.470500	0.754600	0.033000
H23671	H2367	0.484900	0.790000	0.079400
C8351	C835	0.418300	0.794800	0.055700
H23681	H2368	0.411100	0.776600	0.065200
H23691	H2369	0.402500	0.809600	0.056800
N1401	N140	0.476150	0.834580	0.143910
C8361	C836	0.425800	0.788400	0.023000
H23701	H2370	0.413900	0.801200	0.010200
H23711	H2371	0.420900	0.767800	0.018300
C8371	C837	0.405300	0.881400	0.106800
H23721	H2372	0.423100	0.889000	0.116600
H23731	H2373	0.410600	0.876500	0.086300
H23741	H2374	0.403800	0.871000	0.163400
C8381	C838	0.485400	0.859900	0.127200
H23751	H2375	0.488600	0.854200	0.106500
H23761	H2376	0.469900	0.875000	0.127800
C8391	C839	0.500500	0.812400	0.143800
H23771	H2377	0.494500	0.794900	0.155100
H23781	H2378	0.504700	0.806200	0.123400
C8401	C840	0.472000	0.842600	0.174500
H23791	H2379	0.455600	0.856800	0.176000
H23801	H2380	0.466600	0.824900	0.185900
H23811	H2381	0.876400	0.838900	0.314000
H23821	H2382	0.847600	0.785600	0.310400
H23831	H2383	0.779500	0.754600	0.217000
H23841	H2384	0.765100	0.790000	0.170600
C8411	C841	0.831700	0.794800	0.194300
H23851	H2385	0.838900	0.776600	0.184800
H23861	H2386	0.847500	0.809600	0.193200
N1411	N141	0.773850	0.834580	0.106090
C8421	C842	0.824200	0.788400	0.227000
H23871	H2387	0.836100	0.801200	0.239800
H23881	H2388	0.829100	0.767800	0.231700
C8431	C843	0.844700	0.881400	0.143200
H23891	H2389	0.826900	0.889000	0.133400
H23901	H2390	0.839400	0.876500	0.163700
H23911	H2391	0.846200	0.871000	0.086600
C8441	C844	0.764600	0.859900	0.122800
H23921	H2392	0.761400	0.854200	0.143500
H23931	H2393	0.780100	0.875000	0.122200
C8451	C845	0.749500	0.812400	0.106200
H23941	H2394	0.755500	0.794900	0.094900
H23951	H2395	0.745300	0.806200	0.126600
C8461	C846	0.778000	0.842600	0.075500
H23961	H2396	0.794400	0.856800	0.074000
H23971	H2397	0.783400	0.824900	0.064100
H23981	H2398	0.876400	0.338900	0.814000
H23991	H2399	0.847600	0.285600	0.810400
H24001	H2400	0.779500	0.254600	0.717000
H24011	H2401	0.765100	0.290000	0.670600
C8471	C847	0.831700	0.294800	0.694300
H24021	H2402	0.838900	0.276600	0.684800
H24031	H2403	0.847500	0.309600	0.693200
N1421	N142	0.773850	0.334580	0.606090
C8481	C848	0.824200	0.288400	0.727000
H24041	H2404	0.836100	0.301200	0.739800
H24051	H2405	0.829100	0.267800	0.731700
C8491	C849	0.844700	0.381400	0.643200
H24061	H2406	0.826900	0.389000	0.633400
H24071	H2407	0.839400	0.376500	0.663700
H24081	H2408	0.846200	0.371000	0.586600
C8501	C850	0.764600	0.359900	0.622800
H24091	H2409	0.761400	0.354200	0.643500
H24101	H2410	0.780100	0.375000	0.622200
C8511	C851	0.749500	0.312400	0.606200
H24111	H2411	0.755500	0.294900	0.594900
H24121	H2412	0.745300	0.306200	0.626600
C8521	C852	0.778000	0.342600	0.575500
H24131	H2413	0.794400	0.356800	0.574000
H24141	H2414	0.783400	0.324900	0.564100
H24151	H2415	0.376400	0.838900	0.814000
H24161	H2416	0.347600	0.785600	0.810400
H24171	H2417	0.279500	0.754600	0.717000
H24181	H2418	0.265100	0.790000	0.670600
C8531	C853	0.331700	0.794800	0.694300
H24191	H2419	0.338900	0.776600	0.684800
H24201	H2420	0.347500	0.809600	0.693200
N1431	N143	0.273850	0.834580	0.606090
C8541	C854	0.324200	0.788400	0.727000
H24211	H2421	0.336100	0.801200	0.739800
H24221	H2422	0.329100	0.767800	0.731700
C8551	C855	0.344700	0.881400	0.643200
H24231	H2423	0.326900	0.889000	0.633400
H24241	H2424	0.339400	0.876500	0.663700
H24251	H2425	0.346200	0.871000	0.586600
C8561	C856	0.264600	0.859900	0.622800
H24261	H2426	0.261400	0.854200	0.643500
H24271	H2427	0.280100	0.875000	0.622200
C8571	C857	0.249500	0.812400	0.606200
H24281	H2428	0.255500	0.794900	0.594900
H24291	H2429	0.245300	0.806200	0.626600
C8581	C858	0.278000	0.842600	0.575500
H24301	H2430	0.294400	0.856800	0.574000
H24311	H2431	0.283400	0.824900	0.564100
H24321	H2432	0.376400	0.338900	0.314000
H24331	H2433	0.347600	0.285600	0.310400
H24341	H2434	0.279500	0.254600	0.217000
H24351	H2435	0.265100	0.290000	0.170600
C8591	C859	0.331700	0.294800	0.194300
H24361	H2436	0.338900	0.276600	0.184800
H24371	H2437	0.347500	0.309600	0.193200
N1441	N144	0.273850	0.334580	0.106090
C8601	C860	0.324200	0.288400	0.227000
H24381	H2438	0.336100	0.301200	0.239800
H24391	H2439	0.329100	0.267800	0.231700
C8611	C861	0.344700	0.381400	0.143200
H24401	H2440	0.326900	0.389000	0.133400
H24411	H2441	0.339400	0.376500	0.163700
H24421	H2442	0.346200	0.371000	0.086600
C8621	C862	0.264600	0.359900	0.122800
H24431	H2443	0.261400	0.354200	0.143500
H24441	H2444	0.280100	0.375000	0.122200
C8631	C863	0.249500	0.312400	0.106200
H24451	H2445	0.255500	0.294900	0.094900
H24461	H2446	0.245300	0.306200	0.126600
C8641	C864	0.278000	0.342600	0.075500
H24471	H2447	0.294400	0.356800	0.074000
H24481	H2448	0.283400	0.324900	0.064100
H24491	H2449	0.623600	0.564000	0.588900
H24501	H2450	0.652400	0.560400	0.535600
H24511	H2451	0.720500	0.467000	0.504600
H24521	H2452	0.734900	0.420600	0.540000
C8651	C865	0.668300	0.444300	0.544800
H24531	H2453	0.661100	0.434800	0.526600
H24541	H2454	0.652500	0.443200	0.559600
N1451	N145	0.726150	0.356090	0.584580
C8661	C866	0.675800	0.477000	0.538400
H24551	H2455	0.663900	0.489800	0.551200
H24561	H2456	0.670900	0.481700	0.517800
C8671	C867	0.655300	0.393200	0.631400
H24571	H2457	0.673100	0.383400	0.639000
H24581	H2458	0.660600	0.413700	0.626500
H24591	H2459	0.653800	0.336600	0.621000
C8681	C868	0.735400	0.372800	0.609900
H24601	H2460	0.738600	0.393500	0.604200
H24611	H2461	0.719900	0.372200	0.625000
C8691	C869	0.750500	0.356200	0.562400
H24621	H2462	0.744500	0.344900	0.544900
H24631	H2463	0.754700	0.376600	0.556200
C8701	C870	0.722000	0.325500	0.592600
H24641	H2464	0.705600	0.324000	0.606800
H24651	H2465	0.716600	0.314100	0.574900
H24661	H2466	0.623600	0.064000	0.088900
H24671	H2467	0.652400	0.060400	0.035600
H24681	H2468	0.720500	0.967000	0.004600
H24691	H2469	0.734900	0.920600	0.040000
C8711	C871	0.668300	0.944300	0.044800
H24701	H2470	0.661100	0.934800	0.026600
H24711	H2471	0.652500	0.943200	0.059600
N1461	N146	0.726150	0.856090	0.084580
C8721	C872	0.675800	0.977000	0.038400
H24721	H2472	0.663900	0.989800	0.051200
H24731	H2473	0.670900	0.981700	0.017800
C8731	C873	0.655300	0.893200	0.131400
H24741	H2474	0.673100	0.883400	0.139000
H24751	H2475	0.660600	0.913700	0.126500
H24761	H2476	0.653800	0.836600	0.121000
C8741	C874	0.735400	0.872800	0.109900
H24771	H2477	0.738600	0.893500	0.104200
H24781	H2478	0.719900	0.872200	0.125000
C8751	C875	0.750500	0.856200	0.062400
H24791	H2479	0.744500	0.844900	0.044900
H24801	H2480	0.754700	0.876600	0.056200
C8761	C876	0.722000	0.825500	0.092600
H24811	H2481	0.705600	0.824000	0.106800
H24821	H2482	0.716600	0.814100	0.074900
H24831	H2483	0.123600	0.564000	0.088900
H24841	H2484	0.152400	0.560400	0.035600
H24851	H2485	0.220500	0.467000	0.004600
H24861	H2486	0.234900	0.420600	0.040000
C8771	C877	0.168300	0.444300	0.044800
H24871	H2487	0.161100	0.434800	0.026600
H24881	H2488	0.152500	0.443200	0.059600
N1471	N147	0.226150	0.356090	0.084580
C8781	C878	0.175800	0.477000	0.038400
H24891	H2489	0.163900	0.489800	0.051200
H24901	H2490	0.170900	0.481700	0.017800
C8791	C879	0.155300	0.393200	0.131400
H24911	H2491	0.173100	0.383400	0.139000
H24921	H2492	0.160600	0.413700	0.126500
H24931	H2493	0.153800	0.336600	0.121000
C8801	C880	0.235400	0.372800	0.109900
H24941	H2494	0.238600	0.393500	0.104200
H24951	H2495	0.219900	0.372200	0.125000
C8811	C881	0.250500	0.356200	0.062400
H24961	H2496	0.244500	0.344900	0.044900
H24971	H2497	0.254700	0.376600	0.056200
C8821	C882	0.222000	0.325500	0.092600
H24981	H2498	0.205600	0.324000	0.106800
H24991	H2499	0.216600	0.314100	0.074900
H25001	H2500	0.123600	0.064000	0.588900
H25011	H2501	0.152400	0.060400	0.535600
H25021	H2502	0.220500	0.967000	0.504600
H25031	H2503	0.234900	0.920600	0.540000
C8831	C883	0.168300	0.944300	0.544800
H25041	H2504	0.161100	0.934800	0.526600
H25051	H2505	0.152500	0.943200	0.559600
N1481	N148	0.226150	0.856090	0.584580
C8841	C884	0.175800	0.977000	0.538400
H25061	H2506	0.163900	0.989800	0.551200
H25071	H2507	0.170900	0.981700	0.517800
C8851	C885	0.155300	0.893200	0.631400
H25081	H2508	0.173100	0.883400	0.639000
H25091	H2509	0.160600	0.913700	0.626500
H25101	H2510	0.153800	0.836600	0.621000
C8861	C886	0.235400	0.872800	0.609900
H25111	H2511	0.238600	0.893500	0.604200
H25121	H2512	0.219900	0.872200	0.625000
C8871	C887	0.250500	0.856200	0.562400
H25131	H2513	0.244500	0.844900	0.544900
H25141	H2514	0.254700	0.876600	0.556200
C8881	C888	0.222000	0.825500	0.592600
H25151	H2515	0.205600	0.824000	0.606800
H25161	H2516	0.216600	0.814100	0.574900
H25171	H2517	0.626400	0.186000	0.088900
H25181	H2518	0.597600	0.189600	0.035600
H25191	H2519	0.529500	0.283000	0.004600
H25201	H2520	0.515100	0.329400	0.040000
C8891	C889	0.581700	0.305700	0.044800
H25211	H2521	0.588900	0.315200	0.026600
H25221	H2522	0.597500	0.306800	0.059600
N1491	N149	0.523850	0.393910	0.084580
C8901	C890	0.574200	0.273000	0.038400
H25231	H2523	0.586100	0.260200	0.051200
H25241	H2524	0.579100	0.268300	0.017800
C8911	C891	0.594700	0.356800	0.131400
H25251	H2525	0.576900	0.366600	0.139000
H25261	H2526	0.589400	0.336300	0.126500
H25271	H2527	0.596200	0.413400	0.121000
C8921	C892	0.514600	0.377200	0.109900
H25281	H2528	0.511400	0.356500	0.104200
H25291	H2529	0.530100	0.377800	0.125000
C8931	C893	0.499500	0.393800	0.062400
H25301	H2530	0.505500	0.405100	0.044900
H25311	H2531	0.495300	0.373400	0.056200
C8941	C894	0.528000	0.424500	0.092600
H25321	H2532	0.544400	0.426000	0.106800
H25331	H2533	0.533400	0.435900	0.074900
H25341	H2534	0.626400	0.686000	0.588900
H25351	H2535	0.597600	0.689600	0.535600
H25361	H2536	0.529500	0.783000	0.504600
H25371	H2537	0.515100	0.829400	0.540000
C8951	C895	0.581700	0.805700	0.544800
H25381	H2538	0.588900	0.815200	0.526600
H25391	H2539	0.597500	0.806800	0.559600
N1501	N150	0.523850	0.893910	0.584580
C8961	C896	0.574200	0.773000	0.538400
H25401	H2540	0.586100	0.760200	0.551200
H25411	H2541	0.579100	0.768300	0.517800
C8971	C897	0.594700	0.856800	0.631400
H25421	H2542	0.576900	0.866600	0.639000
H25431	H2543	0.589400	0.836300	0.626500
H25441	H2544	0.596200	0.913400	0.621000
C8981	C898	0.514600	0.877200	0.609900
H25451	H2545	0.511400	0.856500	0.604200
H25461	H2546	0.530100	0.877800	0.625000
C8991	C899	0.499500	0.893800	0.562400
H25471	H2547	0.505500	0.905100	0.544900
H25481	H2548	0.495300	0.873400	0.556200
C9001	C900	0.528000	0.924500	0.592600
H25491	H2549	0.544400	0.926000	0.606800
H25501	H2550	0.533400	0.935900	0.574900
H25511	H2551	0.126400	0.186000	0.588900
H25521	H2552	0.097600	0.189600	0.535600
H25531	H2553	0.029500	0.283000	0.504600
H25541	H2554	0.015100	0.329400	0.540000
C9011	C901	0.081700	0.305700	0.544800
H25551	H2555	0.088900	0.315200	0.526600
H25561	H2556	0.097500	0.306800	0.559600
N1511	N151	0.023850	0.393910	0.584580
C9021	C902	0.074200	0.273000	0.538400
H25571	H2557	0.086100	0.260200	0.551200
H25581	H2558	0.079100	0.268300	0.517800
C9031	C903	0.094700	0.356800	0.631400
H25591	H2559	0.076900	0.366600	0.639000
H25601	H2560	0.089400	0.336300	0.626500
H25611	H2561	0.096200	0.413400	0.621000
C9041	C904	0.014600	0.377200	0.609900
H25621	H2562	0.011400	0.356500	0.604200
H25631	H2563	0.030100	0.377800	0.625000
C9051	C905	0.999500	0.393800	0.562400
H25641	H2564	0.005500	0.405100	0.544900
H25651	H2565	0.995300	0.373400	0.556200
C9061	C906	0.028000	0.424500	0.592600
H25661	H2566	0.044400	0.426000	0.606800
H25671	H2567	0.033400	0.435900	0.574900
H25681	H2568	0.126400	0.686000	0.088900
H25691	H2569	0.097600	0.689600	0.035600
H25701	H2570	0.029500	0.783000	0.004600
H25711	H2571	0.015100	0.829400	0.040000
C9071	C907	0.081700	0.805700	0.044800
H25721	H2572	0.088900	0.815200	0.026600
H25731	H2573	0.097500	0.806800	0.059600
N1521	N152	0.023850	0.893910	0.084580
C9081	C908	0.074200	0.773000	0.038400
H25741	H2574	0.086100	0.760200	0.051200
H25751	H2575	0.079100	0.768300	0.017800
C9091	C909	0.094700	0.856800	0.131400
H25761	H2576	0.076900	0.866600	0.139000
H25771	H2577	0.089400	0.836300	0.126500
H25781	H2578	0.096200	0.913400	0.121000
C9101	C910	0.014600	0.877200	0.109900
H25791	H2579	0.011400	0.856500	0.104200
H25801	H2580	0.030100	0.877800	0.125000
C9111	C911	0.999500	0.893800	0.062400
H25811	H2581	0.005500	0.905100	0.044900
H25821	H2582	0.995300	0.873400	0.056200
C9121	C912	0.028000	0.924500	0.092600
H25831	H2583	0.044400	0.926000	0.106800
H25841	H2584	0.033400	0.935900	0.074900
H25851	H2585	0.123600	0.686000	0.161100
H25861	H2586	0.152400	0.689600	0.214400
H25871	H2587	0.220500	0.783000	0.245400
H25881	H2588	0.234900	0.829400	0.210000
C9131	C913	0.168300	0.805700	0.205200
H25891	H2589	0.161100	0.815200	0.223400
H25901	H2590	0.152500	0.806800	0.190400
N1531	N153	0.226150	0.893910	0.165420
C9141	C914	0.175800	0.773000	0.211600
H25911	H2591	0.163900	0.760200	0.198800
H25921	H2592	0.170900	0.768300	0.232200
C9151	C915	0.155300	0.856800	0.118600
H25931	H2593	0.173100	0.866600	0.111000
H25941	H2594	0.160600	0.836300	0.123500
H25951	H2595	0.153800	0.913400	0.129000
C9161	C916	0.235400	0.877200	0.140100
H25961	H2596	0.238600	0.856500	0.145800
H25971	H2597	0.219900	0.877800	0.125000
C9171	C917	0.250500	0.893800	0.187600
H25981	H2598	0.244500	0.905100	0.205100
H25991	H2599	0.254700	0.873400	0.193800
C9181	C918	0.222000	0.924500	0.157400
H26001	H2600	0.205600	0.926000	0.143200
H26011	H2601	0.216600	0.935900	0.175100
H26021	H2602	0.123600	0.186000	0.661100
H26031	H2603	0.152400	0.189600	0.714400
H26041	H2604	0.220500	0.283000	0.745400
H26051	H2605	0.234900	0.329400	0.710000
C9191	C919	0.168300	0.305700	0.705200
H26061	H2606	0.161100	0.315200	0.723400
H26071	H2607	0.152500	0.306800	0.690400
N1541	N154	0.226150	0.393910	0.665420
C9201	C920	0.175800	0.273000	0.711600
H26081	H2608	0.163900	0.260200	0.698800
H26091	H2609	0.170900	0.268300	0.732200
C9211	C921	0.155300	0.356800	0.618600
H26101	H2610	0.173100	0.366600	0.611000
H26111	H2611	0.160600	0.336300	0.623500
H26121	H2612	0.153800	0.413400	0.629000
C9221	C922	0.235400	0.377200	0.640100
H26131	H2613	0.238600	0.356500	0.645800
H26141	H2614	0.219900	0.377800	0.625000
C9231	C923	0.250500	0.393800	0.687600
H26151	H2615	0.244500	0.405100	0.705100
H26161	H2616	0.254700	0.373400	0.693800
C9241	C924	0.222000	0.424500	0.657400
H26171	H2617	0.205600	0.426000	0.643200
H26181	H2618	0.216600	0.435900	0.675100
H26191	H2619	0.623600	0.686000	0.661100
H26201	H2620	0.652400	0.689600	0.714400
H26211	H2621	0.720500	0.783000	0.745400
H26221	H2622	0.734900	0.829400	0.710000
C9251	C925	0.668300	0.805700	0.705200
H26231	H2623	0.661100	0.815200	0.723400
H26241	H2624	0.652500	0.806800	0.690400
N1551	N155	0.726150	0.893910	0.665420
C9261	C926	0.675800	0.773000	0.711600
H26251	H2625	0.663900	0.760200	0.698800
H26261	H2626	0.670900	0.768300	0.732200
C9271	C927	0.655300	0.856800	0.618600
H26271	H2627	0.673100	0.866600	0.611000
H26281	H2628	0.660600	0.836300	0.623500
H26291	H2629	0.653800	0.913400	0.629000
C9281	C928	0.735400	0.877200	0.640100
H26301	H2630	0.738600	0.856500	0.645800
H26311	H2631	0.719900	0.877800	0.625000
C9291	C929	0.750500	0.893800	0.687600
H26321	H2632	0.744500	0.905100	0.705100
H26331	H2633	0.754700	0.873400	0.693800
C9301	C930	0.722000	0.924500	0.657400
H26341	H2634	0.705600	0.926000	0.643200
H26351	H2635	0.716600	0.935900	0.675100
H26361	H2636	0.623600	0.186000	0.161100
H26371	H2637	0.652400	0.189600	0.214400
H26381	H2638	0.720500	0.283000	0.245400
H26391	H2639	0.734900	0.329400	0.210000
C9311	C931	0.668300	0.305700	0.205200
H26401	H2640	0.661100	0.315200	0.223400
H26411	H2641	0.652500	0.306800	0.190400
N1561	N156	0.726150	0.393910	0.165420
C9321	C932	0.675800	0.273000	0.211600
H26421	H2642	0.663900	0.260200	0.198800
H26431	H2643	0.670900	0.268300	0.232200
C9331	C933	0.655300	0.356800	0.118600
H26441	H2644	0.673100	0.366600	0.111000
H26451	H2645	0.660600	0.336300	0.123500
H26461	H2646	0.653800	0.413400	0.129000
C9341	C934	0.735400	0.377200	0.140100
H26471	H2647	0.738600	0.356500	0.145800
H26481	H2648	0.719900	0.377800	0.125000
C9351	C935	0.750500	0.393800	0.187600
H26491	H2649	0.744500	0.405100	0.205100
H26501	H2650	0.754700	0.373400	0.193800
C9361	C936	0.722000	0.424500	0.157400
H26511	H2651	0.705600	0.426000	0.143200
H26521	H2652	0.716600	0.435900	0.175100
H26531	H2653	0.126400	0.064000	0.661100
H26541	H2654	0.097600	0.060400	0.714400
H26551	H2655	0.029500	0.967000	0.745400
H26561	H2656	0.015100	0.920600	0.710000
C9371	C937	0.081700	0.944300	0.705200
H26571	H2657	0.088900	0.934800	0.723400
H26581	H2658	0.097500	0.943200	0.690400
N1571	N157	0.023850	0.856090	0.665420
C9381	C938	0.074200	0.977000	0.711600
H26591	H2659	0.086100	0.989800	0.698800
H26601	H2660	0.079100	0.981700	0.732200
C9391	C939	0.094700	0.893200	0.618600
H26611	H2661	0.076900	0.883400	0.611000
H26621	H2662	0.089400	0.913700	0.623500
H26631	H2663	0.096200	0.836600	0.629000
C9401	C940	0.014600	0.872800	0.640100
H26641	H2664	0.011400	0.893500	0.645800
H26651	H2665	0.030100	0.872200	0.625000
C9411	C941	0.999500	0.856200	0.687600
H26661	H2666	0.005500	0.844900	0.705100
H26671	H2667	0.995300	0.876600	0.693800
C9421	C942	0.028000	0.825500	0.657400
H26681	H2668	0.044400	0.824000	0.643200
H26691	H2669	0.033400	0.814100	0.675100
H26701	H2670	0.126400	0.564000	0.161100
H26711	H2671	0.097600	0.560400	0.214400
H26721	H2672	0.029500	0.467000	0.245400
H26731	H2673	0.015100	0.420600	0.210000
C9431	C943	0.081700	0.444300	0.205200
H26741	H2674	0.088900	0.434800	0.223400
H26751	H2675	0.097500	0.443200	0.190400
N1581	N158	0.023850	0.356090	0.165420
C9441	C944	0.074200	0.477000	0.211600
H26761	H2676	0.086100	0.489800	0.198800
H26771	H2677	0.079100	0.481700	0.232200
C9451	C945	0.094700	0.393200	0.118600
H26781	H2678	0.076900	0.383400	0.111000
H26791	H2679	0.089400	0.413700	0.123500
H26801	H2680	0.096200	0.336600	0.129000
C9461	C946	0.014600	0.372800	0.140100
H26811	H2681	0.011400	0.393500	0.145800
H26821	H2682	0.030100	0.372200	0.125000
C9471	C947	0.999500	0.356200	0.187600
H26831	H2683	0.005500	0.344900	0.205100
H26841	H2684	0.995300	0.376600	0.193800
C9481	C948	0.028000	0.325500	0.157400
H26851	H2685	0.044400	0.324000	0.143200
H26861	H2686	0.033400	0.314100	0.175100
H26871	H2687	0.626400	0.064000	0.161100
H26881	H2688	0.597600	0.060400	0.214400
H26891	H2689	0.529500	0.967000	0.245400
H26901	H2690	0.515100	0.920600	0.210000
C9491	C949	0.581700	0.944300	0.205200
H26911	H2691	0.588900	0.934800	0.223400
H26921	H2692	0.597500	0.943200	0.190400
N1591	N159	0.523850	0.856090	0.165420
C9501	C950	0.574200	0.977000	0.211600
H26931	H2693	0.586100	0.989800	0.198800
H26941	H2694	0.579100	0.981700	0.232200
C9511	C951	0.594700	0.893200	0.118600
H26951	H2695	0.576900	0.883400	0.111000
H26961	H2696	0.589400	0.913700	0.123500
H26971	H2697	0.596200	0.836600	0.129000
C9521	C952	0.514600	0.872800	0.140100
H26981	H2698	0.511400	0.893500	0.145800
H26991	H2699	0.530100	0.872200	0.125000
C9531	C953	0.499500	0.856200	0.187600
H27001	H2700	0.505500	0.844900	0.205100
H27011	H2701	0.495300	0.876600	0.193800
C9541	C954	0.528000	0.825500	0.157400
H27021	H2702	0.544400	0.824000	0.143200
H27031	H2703	0.533400	0.814100	0.175100
H27041	H2704	0.626400	0.564000	0.661100
H27051	H2705	0.597600	0.560400	0.714400
H27061	H2706	0.529500	0.467000	0.745400
H27071	H2707	0.515100	0.420600	0.710000
C9551	C955	0.581700	0.444300	0.705200
H27081	H2708	0.588900	0.434800	0.723400
H27091	H2709	0.597500	0.443200	0.690400
N1601	N160	0.523850	0.356090	0.665420
C9561	C956	0.574200	0.477000	0.711600
H27101	H2710	0.586100	0.489800	0.698800
H27111	H2711	0.579100	0.481700	0.732200
C9571	C957	0.594700	0.393200	0.618600
H27121	H2712	0.576900	0.383400	0.611000
H27131	H2713	0.589400	0.413700	0.623500
H27141	H2714	0.596200	0.336600	0.629000
C9581	C958	0.514600	0.372800	0.640100
H27151	H2715	0.511400	0.393500	0.645800
H27161	H2716	0.530100	0.372200	0.625000
C9591	C959	0.499500	0.356200	0.687600
H27171	H2717	0.505500	0.344900	0.705100
H27181	H2718	0.495300	0.376600	0.693800
C9601	C960	0.528000	0.325500	0.657400
H27191	H2719	0.544400	0.324000	0.643200
H27201	H2720	0.533400	0.314100	0.675100
H27211	H2721	0.064000	0.661100	0.126400
H27221	H2722	0.060400	0.714400	0.097600
H27231	H2723	0.967000	0.745400	0.029500
H27241	H2724	0.920600	0.710000	0.015100
C9611	C961	0.944300	0.705200	0.081700
H27251	H2725	0.934800	0.723400	0.088900
H27261	H2726	0.943200	0.690400	0.097500
N1611	N161	0.856090	0.665420	0.023850
C9621	C962	0.977000	0.711600	0.074200
H27271	H2727	0.989800	0.698800	0.086100
H27281	H2728	0.981700	0.732200	0.079100
C9631	C963	0.893200	0.618600	0.094700
H27291	H2729	0.883400	0.611000	0.076900
H27301	H2730	0.913700	0.623500	0.089400
H27311	H2731	0.836600	0.629000	0.096200
C9641	C964	0.872800	0.640100	0.014600
H27321	H2732	0.893500	0.645800	0.011400
H27331	H2733	0.872200	0.625000	0.030100
C9651	C965	0.856200	0.687600	0.999500
H27341	H2734	0.844900	0.705100	0.005500
H27351	H2735	0.876600	0.693800	0.995300
C9661	C966	0.825500	0.657400	0.028000
H27361	H2736	0.824000	0.643200	0.044400
H27371	H2737	0.814100	0.675100	0.033400
H27381	H2738	0.064000	0.161100	0.626400
H27391	H2739	0.060400	0.214400	0.597600
H27401	H2740	0.967000	0.245400	0.529500
H27411	H2741	0.920600	0.210000	0.515100
C9671	C967	0.944300	0.205200	0.581700
H27421	H2742	0.934800	0.223400	0.588900
H27431	H2743	0.943200	0.190400	0.597500
N1621	N162	0.856090	0.165420	0.523850
C9681	C968	0.977000	0.211600	0.574200
H27441	H2744	0.989800	0.198800	0.586100
H27451	H2745	0.981700	0.232200	0.579100
C9691	C969	0.893200	0.118600	0.594700
H27461	H2746	0.883400	0.111000	0.576900
H27471	H2747	0.913700	0.123500	0.589400
H27481	H2748	0.836600	0.129000	0.596200
C9701	C970	0.872800	0.140100	0.514600
H27491	H2749	0.893500	0.145800	0.511400
H27501	H2750	0.872200	0.125000	0.530100
C9711	C971	0.856200	0.187600	0.499500
H27511	H2751	0.844900	0.205100	0.505500
H27521	H2752	0.876600	0.193800	0.495300
C9721	C972	0.825500	0.157400	0.528000
H27531	H2753	0.824000	0.143200	0.544400
H27541	H2754	0.814100	0.175100	0.533400
H27551	H2755	0.564000	0.661100	0.626400
H27561	H2756	0.560400	0.714400	0.597600
H27571	H2757	0.467000	0.745400	0.529500
H27581	H2758	0.420600	0.710000	0.515100
C9731	C973	0.444300	0.705200	0.581700
H27591	H2759	0.434800	0.723400	0.588900
H27601	H2760	0.443200	0.690400	0.597500
N1631	N163	0.356090	0.665420	0.523850
C9741	C974	0.477000	0.711600	0.574200
H27611	H2761	0.489800	0.698800	0.586100
H27621	H2762	0.481700	0.732200	0.579100
C9751	C975	0.393200	0.618600	0.594700
H27631	H2763	0.383400	0.611000	0.576900
H27641	H2764	0.413700	0.623500	0.589400
H27651	H2765	0.336600	0.629000	0.596200
C9761	C976	0.372800	0.640100	0.514600
H27661	H2766	0.393500	0.645800	0.511400
H27671	H2767	0.372200	0.625000	0.530100
C9771	C977	0.356200	0.687600	0.499500
H27681	H2768	0.344900	0.705100	0.505500
H27691	H2769	0.376600	0.693800	0.495300
C9781	C978	0.325500	0.657400	0.528000
H27701	H2770	0.324000	0.643200	0.544400
H27711	H2771	0.314100	0.675100	0.533400
H27721	H2772	0.564000	0.161100	0.126400
H27731	H2773	0.560400	0.214400	0.097600
H27741	H2774	0.467000	0.245400	0.029500
H27751	H2775	0.420600	0.210000	0.015100
C9791	C979	0.444300	0.205200	0.081700
H27761	H2776	0.434800	0.223400	0.088900
H27771	H2777	0.443200	0.190400	0.097500
N1641	N164	0.356090	0.165420	0.023850
C9801	C980	0.477000	0.211600	0.074200
H27781	H2778	0.489800	0.198800	0.086100
H27791	H2779	0.481700	0.232200	0.079100
C9811	C981	0.393200	0.118600	0.094700
H27801	H2780	0.383400	0.111000	0.076900
H27811	H2781	0.413700	0.123500	0.089400
H27821	H2782	0.336600	0.129000	0.096200
C9821	C982	0.372800	0.140100	0.014600
H27831	H2783	0.393500	0.145800	0.011400
H27841	H2784	0.372200	0.125000	0.030100
C9831	C983	0.356200	0.187600	0.999500
H27851	H2785	0.344900	0.205100	0.005500
H27861	H2786	0.376600	0.193800	0.995300
C9841	C984	0.325500	0.157400	0.028000
H27871	H2787	0.324000	0.143200	0.044400
H27881	H2788	0.314100	0.175100	0.033400
H27891	H2789	0.686000	0.161100	0.123600
H27901	H2790	0.689600	0.214400	0.152400
H27911	H2791	0.783000	0.245400	0.220500
H27921	H2792	0.829400	0.210000	0.234900
C9851	C985	0.805700	0.205200	0.168300
H27931	H2793	0.815200	0.223400	0.161100
H27941	H2794	0.806800	0.190400	0.152500
N1651	N165	0.893910	0.165420	0.226150
C9861	C986	0.773000	0.211600	0.175800
H27951	H2795	0.760200	0.198800	0.163900
H27961	H2796	0.768300	0.232200	0.170900
C9871	C987	0.856800	0.118600	0.155300
H27971	H2797	0.866600	0.111000	0.173100
H27981	H2798	0.836300	0.123500	0.160600
H27991	H2799	0.913400	0.129000	0.153800
C9881	C988	0.877200	0.140100	0.235400
H28001	H2800	0.856500	0.145800	0.238600
H28011	H2801	0.877800	0.125000	0.219900
C9891	C989	0.893800	0.187600	0.250500
H28021	H2802	0.905100	0.205100	0.244500
H28031	H2803	0.873400	0.193800	0.254700
C9901	C990	0.924500	0.157400	0.222000
H28041	H2804	0.926000	0.143200	0.205600
H28051	H2805	0.935900	0.175100	0.216600
H28061	H2806	0.686000	0.661100	0.623600
H28071	H2807	0.689600	0.714400	0.652400
H28081	H2808	0.783000	0.745400	0.720500
H28091	H2809	0.829400	0.710000	0.734900
C9911	C991	0.805700	0.705200	0.668300
H28101	H2810	0.815200	0.723400	0.661100
H28111	H2811	0.806800	0.690400	0.652500
N1661	N166	0.893910	0.665420	0.726150
C9921	C992	0.773000	0.711600	0.675800
H28121	H2812	0.760200	0.698800	0.663900
H28131	H2813	0.768300	0.732200	0.670900
C9931	C993	0.856800	0.618600	0.655300
H28141	H2814	0.866600	0.611000	0.673100
H28151	H2815	0.836300	0.623500	0.660600
H28161	H2816	0.913400	0.629000	0.653800
C9941	C994	0.877200	0.640100	0.735400
H28171	H2817	0.856500	0.645800	0.738600
H28181	H2818	0.877800	0.625000	0.719900
C9951	C995	0.893800	0.687600	0.750500
H28191	H2819	0.905100	0.705100	0.744500
H28201	H2820	0.873400	0.693800	0.754700
C9961	C996	0.924500	0.657400	0.722000
H28211	H2821	0.926000	0.643200	0.705600
H28221	H2822	0.935900	0.675100	0.716600
H28231	H2823	0.186000	0.161100	0.623600
H28241	H2824	0.189600	0.214400	0.652400
H28251	H2825	0.283000	0.245400	0.720500
H28261	H2826	0.329400	0.210000	0.734900
C9971	C997	0.305700	0.205200	0.668300
H28271	H2827	0.315200	0.223400	0.661100
H28281	H2828	0.306800	0.190400	0.652500
N1671	N167	0.393910	0.165420	0.726150
C9981	C998	0.273000	0.211600	0.675800
H28291	H2829	0.260200	0.198800	0.663900
H28301	H2830	0.268300	0.232200	0.670900
C9991	C999	0.356800	0.118600	0.655300
H28311	H2831	0.366600	0.111000	0.673100
H28321	H2832	0.336300	0.123500	0.660600
H28331	H2833	0.413400	0.129000	0.653800
C10001	C1000	0.377200	0.140100	0.735400
H28341	H2834	0.356500	0.145800	0.738600
H28351	H2835	0.377800	0.125000	0.719900
C10011	C1001	0.393800	0.187600	0.750500
H28361	H2836	0.405100	0.205100	0.744500
H28371	H2837	0.373400	0.193800	0.754700
C10021	C1002	0.424500	0.157400	0.722000
H28381	H2838	0.426000	0.143200	0.705600
H28391	H2839	0.435900	0.175100	0.716600
H28401	H2840	0.186000	0.661100	0.123600
H28411	H2841	0.189600	0.714400	0.152400
H28421	H2842	0.283000	0.745400	0.220500
H28431	H2843	0.329400	0.710000	0.234900
C10031	C1003	0.305700	0.705200	0.168300
H28441	H2844	0.315200	0.723400	0.161100
H28451	H2845	0.306800	0.690400	0.152500
N1681	N168	0.393910	0.665420	0.226150
C10041	C1004	0.273000	0.711600	0.175800
H28461	H2846	0.260200	0.698800	0.163900
H28471	H2847	0.268300	0.732200	0.170900
C10051	C1005	0.356800	0.618600	0.155300
H28481	H2848	0.366600	0.611000	0.173100
H28491	H2849	0.336300	0.623500	0.160600
H28501	H2850	0.413400	0.629000	0.153800
C10061	C1006	0.377200	0.640100	0.235400
H28511	H2851	0.356500	0.645800	0.238600
H28521	H2852	0.377800	0.625000	0.219900
C10071	C1007	0.393800	0.687600	0.250500
H28531	H2853	0.405100	0.705100	0.244500
H28541	H2854	0.373400	0.693800	0.254700
C10081	C1008	0.424500	0.657400	0.222000
H28551	H2855	0.426000	0.643200	0.205600
H28561	H2856	0.435900	0.675100	0.216600
H28571	H2857	0.186000	0.088900	0.626400
H28581	H2858	0.189600	0.035600	0.597600
H28591	H2859	0.283000	0.004600	0.529500
H28601	H2860	0.329400	0.040000	0.515100
C10091	C1009	0.305700	0.044800	0.581700
H28611	H2861	0.315200	0.026600	0.588900
H28621	H2862	0.306800	0.059600	0.597500
N1691	N169	0.393910	0.084580	0.523850
C10101	C1010	0.273000	0.038400	0.574200
H28631	H2863	0.260200	0.051200	0.586100
H28641	H2864	0.268300	0.017800	0.579100
C10111	C1011	0.356800	0.131400	0.594700
H28651	H2865	0.366600	0.139000	0.576900
H28661	H2866	0.336300	0.126500	0.589400
H28671	H2867	0.413400	0.121000	0.596200
C10121	C1012	0.377200	0.109900	0.514600
H28681	H2868	0.356500	0.104200	0.511400
H28691	H2869	0.377800	0.125000	0.530100
C10131	C1013	0.393800	0.062400	0.499500
H28701	H2870	0.405100	0.044900	0.505500
H28711	H2871	0.373400	0.056200	0.495300
C10141	C1014	0.424500	0.092600	0.528000
H28721	H2872	0.426000	0.106800	0.544400
H28731	H2873	0.435900	0.074900	0.533400
H28741	H2874	0.186000	0.588900	0.126400
H28751	H2875	0.189600	0.535600	0.097600
H28761	H2876	0.283000	0.504600	0.029500
H28771	H2877	0.329400	0.540000	0.015100
C10151	C1015	0.305700	0.544800	0.081700
H28781	H2878	0.315200	0.526600	0.088900
H28791	H2879	0.306800	0.559600	0.097500
N1701	N170	0.393910	0.584580	0.023850
C10161	C1016	0.273000	0.538400	0.074200
H28801	H2880	0.260200	0.551200	0.086100
H28811	H2881	0.268300	0.517800	0.079100
C10171	C1017	0.356800	0.631400	0.094700
H28821	H2882	0.366600	0.639000	0.076900
H28831	H2883	0.336300	0.626500	0.089400
H28841	H2884	0.413400	0.621000	0.096200
C10181	C1018	0.377200	0.609900	0.014600
H28851	H2885	0.356500	0.604200	0.011400
H28861	H2886	0.377800	0.625000	0.030100
C10191	C1019	0.393800	0.562400	0.999500
H28871	H2887	0.405100	0.544900	0.005500
H28881	H2888	0.373400	0.556200	0.995300
C10201	C1020	0.424500	0.592600	0.028000
H28891	H2889	0.426000	0.606800	0.044400
H28901	H2890	0.435900	0.574900	0.033400
H28911	H2891	0.686000	0.088900	0.126400
H28921	H2892	0.689600	0.035600	0.097600
H28931	H2893	0.783000	0.004600	0.029500
H28941	H2894	0.829400	0.040000	0.015100
C10211	C1021	0.805700	0.044800	0.081700
H28951	H2895	0.815200	0.026600	0.088900
H28961	H2896	0.806800	0.059600	0.097500
N1711	N171	0.893910	0.084580	0.023850
C10221	C1022	0.773000	0.038400	0.074200
H28971	H2897	0.760200	0.051200	0.086100
H28981	H2898	0.768300	0.017800	0.079100
C10231	C1023	0.856800	0.131400	0.094700
H28991	H2899	0.866600	0.139000	0.076900
H29001	H2900	0.836300	0.126500	0.089400
H29011	H2901	0.913400	0.121000	0.096200
C10241	C1024	0.877200	0.109900	0.014600
H29021	H2902	0.856500	0.104200	0.011400
H29031	H2903	0.877800	0.125000	0.030100
C10251	C1025	0.893800	0.062400	0.999500
H29041	H2904	0.905100	0.044900	0.005500
H29051	H2905	0.873400	0.056200	0.995300
C10261	C1026	0.924500	0.092600	0.028000
H29061	H2906	0.926000	0.106800	0.044400
H29071	H2907	0.935900	0.074900	0.033400
H29081	H2908	0.686000	0.588900	0.626400
H29091	H2909	0.689600	0.535600	0.597600
H29101	H2910	0.783000	0.504600	0.529500
H29111	H2911	0.829400	0.540000	0.515100
C10271	C1027	0.805700	0.544800	0.581700
H29121	H2912	0.815200	0.526600	0.588900
H29131	H2913	0.806800	0.559600	0.597500
N1721	N172	0.893910	0.584580	0.523850
C10281	C1028	0.773000	0.538400	0.574200
H29141	H2914	0.760200	0.551200	0.586100
H29151	H2915	0.768300	0.517800	0.579100
C10291	C1029	0.856800	0.631400	0.594700
H29161	H2916	0.866600	0.639000	0.576900
H29171	H2917	0.836300	0.626500	0.589400
H29181	H2918	0.913400	0.621000	0.596200
C10301	C1030	0.877200	0.609900	0.514600
H29191	H2919	0.856500	0.604200	0.511400
H29201	H2920	0.877800	0.625000	0.530100
C10311	C1031	0.893800	0.562400	0.499500
H29211	H2921	0.905100	0.544900	0.505500
H29221	H2922	0.873400	0.556200	0.495300
C10321	C1032	0.924500	0.592600	0.528000
H29231	H2923	0.926000	0.606800	0.544400
H29241	H2924	0.935900	0.574900	0.533400
H29251	H2925	0.564000	0.588900	0.623600
H29261	H2926	0.560400	0.535600	0.652400
H29271	H2927	0.467000	0.504600	0.720500
H29281	H2928	0.420600	0.540000	0.734900
C10331	C1033	0.444300	0.544800	0.668300
H29291	H2929	0.434800	0.526600	0.661100
H29301	H2930	0.443200	0.559600	0.652500
N1731	N173	0.356090	0.584580	0.726150
C10341	C1034	0.477000	0.538400	0.675800
H29311	H2931	0.489800	0.551200	0.663900
H29321	H2932	0.481700	0.517800	0.670900
C10351	C1035	0.393200	0.631400	0.655300
H29331	H2933	0.383400	0.639000	0.673100
H29341	H2934	0.413700	0.626500	0.660600
H29351	H2935	0.336600	0.621000	0.653800
C10361	C1036	0.372800	0.609900	0.735400
H29361	H2936	0.393500	0.604200	0.738600
H29371	H2937	0.372200	0.625000	0.719900
C10371	C1037	0.356200	0.562400	0.750500
H29381	H2938	0.344900	0.544900	0.744500
H29391	H2939	0.376600	0.556200	0.754700
C10381	C1038	0.325500	0.592600	0.722000
H29401	H2940	0.324000	0.606800	0.705600
H29411	H2941	0.314100	0.574900	0.716600
H29421	H2942	0.564000	0.088900	0.123600
H29431	H2943	0.560400	0.035600	0.152400
H29441	H2944	0.467000	0.004600	0.220500
H29451	H2945	0.420600	0.040000	0.234900
C10391	C1039	0.444300	0.044800	0.168300
H29461	H2946	0.434800	0.026600	0.161100
H29471	H2947	0.443200	0.059600	0.152500
N1741	N174	0.356090	0.084580	0.226150
C10401	C1040	0.477000	0.038400	0.175800
H29481	H2948	0.489800	0.051200	0.163900
H29491	H2949	0.481700	0.017800	0.170900
C10411	C1041	0.393200	0.131400	0.155300
H29501	H2950	0.383400	0.139000	0.173100
H29511	H2951	0.413700	0.126500	0.160600
H29521	H2952	0.336600	0.121000	0.153800
C10421	C1042	0.372800	0.109900	0.235400
H29531	H2953	0.393500	0.104200	0.238600
H29541	H2954	0.372200	0.125000	0.219900
C10431	C1043	0.356200	0.062400	0.250500
H29551	H2955	0.344900	0.044900	0.244500
H29561	H2956	0.376600	0.056200	0.254700
C10441	C1044	0.325500	0.092600	0.222000
H29571	H2957	0.324000	0.106800	0.205600
H29581	H2958	0.314100	0.074900	0.216600
H29591	H2959	0.064000	0.588900	0.123600
H29601	H2960	0.060400	0.535600	0.152400
H29611	H2961	0.967000	0.504600	0.220500
H29621	H2962	0.920600	0.540000	0.234900
C10451	C1045	0.944300	0.544800	0.168300
H29631	H2963	0.934800	0.526600	0.161100
H29641	H2964	0.943200	0.559600	0.152500
N1751	N175	0.856090	0.584580	0.226150
C10461	C1046	0.977000	0.538400	0.175800
H29651	H2965	0.989800	0.551200	0.163900
H29661	H2966	0.981700	0.517800	0.170900
C10471	C1047	0.893200	0.631400	0.155300
H29671	H2967	0.883400	0.639000	0.173100
H29681	H2968	0.913700	0.626500	0.160600
H29691	H2969	0.836600	0.621000	0.153800
C10481	C1048	0.872800	0.609900	0.235400
H29701	H2970	0.893500	0.604200	0.238600
H29711	H2971	0.872200	0.625000	0.219900
C10491	C1049	0.856200	0.562400	0.250500
H29721	H2972	0.844900	0.544900	0.244500
H29731	H2973	0.876600	0.556200	0.254700
C10501	C1050	0.825500	0.592600	0.222000
H29741	H2974	0.824000	0.606800	0.205600
H29751	H2975	0.814100	0.574900	0.216600
H29761	H2976	0.064000	0.088900	0.623600
H29771	H2977	0.060400	0.035600	0.652400
H29781	H2978	0.967000	0.004600	0.720500
H29791	H2979	0.920600	0.040000	0.734900
C10511	C1051	0.944300	0.044800	0.668300
H29801	H2980	0.934800	0.026600	0.661100
H29811	H2981	0.943200	0.059600	0.652500
N1761	N176	0.856090	0.084580	0.726150
C10521	C1052	0.977000	0.038400	0.675800
H29821	H2982	0.989800	0.051200	0.663900
H29831	H2983	0.981700	0.017800	0.670900
C10531	C1053	0.893200	0.131400	0.655300
H29841	H2984	0.883400	0.139000	0.673100
H29851	H2985	0.913700	0.126500	0.660600
H29861	H2986	0.836600	0.121000	0.653800
C10541	C1054	0.872800	0.109900	0.735400
H29871	H2987	0.893500	0.104200	0.738600
H29881	H2988	0.872200	0.125000	0.719900
C10551	C1055	0.856200	0.062400	0.750500
H29891	H2989	0.844900	0.044900	0.744500
H29901	H2990	0.876600	0.056200	0.754700
C10561	C1056	0.825500	0.092600	0.722000
H29911	H2991	0.824000	0.106800	0.705600
H29921	H2992	0.814100	0.074900	0.716600
H29931	H2993	0.161100	0.123600	0.686000
H29941	H2994	0.214400	0.152400	0.689600
H29951	H2995	0.245400	0.220500	0.783000
H29961	H2996	0.210000	0.234900	0.829400
C10571	C1057	0.205200	0.168300	0.805700
H29971	H2997	0.223400	0.161100	0.815200
H29981	H2998	0.190400	0.152500	0.806800
N1771	N177	0.165420	0.226150	0.893910
C10581	C1058	0.211600	0.175800	0.773000
H29991	H2999	0.198800	0.163900	0.760200
H30001	H3000	0.232200	0.170900	0.768300
C10591	C1059	0.118600	0.155300	0.856800
H30011	H3001	0.111000	0.173100	0.866600
H30021	H3002	0.123500	0.160600	0.836300
H30031	H3003	0.129000	0.153800	0.913400
C10601	C1060	0.140100	0.235400	0.877200
H30041	H3004	0.145800	0.238600	0.856500
H30051	H3005	0.125000	0.219900	0.877800
C10611	C1061	0.187600	0.250500	0.893800
H30061	H3006	0.205100	0.244500	0.905100
H30071	H3007	0.193800	0.254700	0.873400
C10621	C1062	0.157400	0.222000	0.924500
H30081	H3008	0.143200	0.205600	0.926000
H30091	H3009	0.175100	0.216600	0.935900
H30101	H3010	0.161100	0.623600	0.186000
H30111	H3011	0.214400	0.652400	0.189600
H30121	H3012	0.245400	0.720500	0.283000
H30131	H3013	0.210000	0.734900	0.329400
C10631	C1063	0.205200	0.668300	0.305700
H30141	H3014	0.223400	0.661100	0.315200
H30151	H3015	0.190400	0.652500	0.306800
N1781	N178	0.165420	0.726150	0.393910
C10641	C1064	0.211600	0.675800	0.273000
H30161	H3016	0.198800	0.663900	0.260200
H30171	H3017	0.232200	0.670900	0.268300
C10651	C1065	0.118600	0.655300	0.356800
H30181	H3018	0.111000	0.673100	0.366600
H30191	H3019	0.123500	0.660600	0.336300
H30201	H3020	0.129000	0.653800	0.413400
C10661	C1066	0.140100	0.735400	0.377200
H30211	H3021	0.145800	0.738600	0.356500
H30221	H3022	0.125000	0.719900	0.377800
C10671	C1067	0.187600	0.750500	0.393800
H30231	H3023	0.205100	0.744500	0.405100
H30241	H3024	0.193800	0.754700	0.373400
C10681	C1068	0.157400	0.722000	0.424500
H30251	H3025	0.143200	0.705600	0.426000
H30261	H3026	0.175100	0.716600	0.435900
H30271	H3027	0.661100	0.123600	0.186000
H30281	H3028	0.714400	0.152400	0.189600
H30291	H3029	0.745400	0.220500	0.283000
H30301	H3030	0.710000	0.234900	0.329400
C10691	C1069	0.705200	0.168300	0.305700
H30311	H3031	0.723400	0.161100	0.315200
H30321	H3032	0.690400	0.152500	0.306800
N1791	N179	0.665420	0.226150	0.393910
C10701	C1070	0.711600	0.175800	0.273000
H30331	H3033	0.698800	0.163900	0.260200
H30341	H3034	0.732200	0.170900	0.268300
C10711	C1071	0.618600	0.155300	0.356800
H30351	H3035	0.611000	0.173100	0.366600
H30361	H3036	0.623500	0.160600	0.336300
H30371	H3037	0.629000	0.153800	0.413400
C10721	C1072	0.640100	0.235400	0.377200
H30381	H3038	0.645800	0.238600	0.356500
H30391	H3039	0.625000	0.219900	0.377800
C10731	C1073	0.687600	0.250500	0.393800
H30401	H3040	0.705100	0.244500	0.405100
H30411	H3041	0.693800	0.254700	0.373400
C10741	C1074	0.657400	0.222000	0.424500
H30421	H3042	0.643200	0.205600	0.426000
H30431	H3043	0.675100	0.216600	0.435900
H30441	H3044	0.661100	0.623600	0.686000
H30451	H3045	0.714400	0.652400	0.689600
H30461	H3046	0.745400	0.720500	0.783000
H30471	H3047	0.710000	0.734900	0.829400
C10751	C1075	0.705200	0.668300	0.805700
H30481	H3048	0.723400	0.661100	0.815200
H30491	H3049	0.690400	0.652500	0.806800
N1801	N180	0.665420	0.726150	0.893910
C10761	C1076	0.711600	0.675800	0.773000
H30501	H3050	0.698800	0.663900	0.760200
H30511	H3051	0.732200	0.670900	0.768300
C10771	C1077	0.618600	0.655300	0.856800
H30521	H3052	0.611000	0.673100	0.866600
H30531	H3053	0.623500	0.660600	0.836300
H30541	H3054	0.629000	0.653800	0.913400
C10781	C1078	0.640100	0.735400	0.877200
H30551	H3055	0.645800	0.738600	0.856500
H30561	H3056	0.625000	0.719900	0.877800
C10791	C1079	0.687600	0.750500	0.893800
H30571	H3057	0.705100	0.744500	0.905100
H30581	H3058	0.693800	0.754700	0.873400
C10801	C1080	0.657400	0.722000	0.924500
H30591	H3059	0.643200	0.705600	0.926000
H30601	H3060	0.675100	0.716600	0.935900
H30611	H3061	0.661100	0.126400	0.064000
H30621	H3062	0.714400	0.097600	0.060400
H30631	H3063	0.745400	0.029500	0.967000
H30641	H3064	0.710000	0.015100	0.920600
C10811	C1081	0.705200	0.081700	0.944300
H30651	H3065	0.723400	0.088900	0.934800
H30661	H3066	0.690400	0.097500	0.943200
N1811	N181	0.665420	0.023850	0.856090
C10821	C1082	0.711600	0.074200	0.977000
H30671	H3067	0.698800	0.086100	0.989800
H30681	H3068	0.732200	0.079100	0.981700
C10831	C1083	0.618600	0.094700	0.893200
H30691	H3069	0.611000	0.076900	0.883400
H30701	H3070	0.623500	0.089400	0.913700
H30711	H3071	0.629000	0.096200	0.836600
C10841	C1084	0.640100	0.014600	0.872800
H30721	H3072	0.645800	0.011400	0.893500
H30731	H3073	0.625000	0.030100	0.872200
C10851	C1085	0.687600	0.999500	0.856200
H30741	H3074	0.705100	0.005500	0.844900
H30751	H3075	0.693800	0.995300	0.876600
C10861	C1086	0.657400	0.028000	0.825500
H30761	H3076	0.643200	0.044400	0.824000
H30771	H3077	0.675100	0.033400	0.814100
H30781	H3078	0.661100	0.626400	0.564000
H30791	H3079	0.714400	0.597600	0.560400
H30801	H3080	0.745400	0.529500	0.467000
H30811	H3081	0.710000	0.515100	0.420600
C10871	C1087	0.705200	0.581700	0.444300
H30821	H3082	0.723400	0.588900	0.434800
H30831	H3083	0.690400	0.597500	0.443200
N1821	N182	0.665420	0.523850	0.356090
C10881	C1088	0.711600	0.574200	0.477000
H30841	H3084	0.698800	0.586100	0.489800
H30851	H3085	0.732200	0.579100	0.481700
C10891	C1089	0.618600	0.594700	0.393200
H30861	H3086	0.611000	0.576900	0.383400
H30871	H3087	0.623500	0.589400	0.413700
H30881	H3088	0.629000	0.596200	0.336600
C10901	C1090	0.640100	0.514600	0.372800
H30891	H3089	0.645800	0.511400	0.393500
H30901	H3090	0.625000	0.530100	0.372200
C10911	C1091	0.687600	0.499500	0.356200
H30911	H3091	0.705100	0.505500	0.344900
H30921	H3092	0.693800	0.495300	0.376600
C10921	C1092	0.657400	0.528000	0.325500
H30931	H3093	0.643200	0.544400	0.324000
H30941	H3094	0.675100	0.533400	0.314100
H30951	H3095	0.161100	0.126400	0.564000
H30961	H3096	0.214400	0.097600	0.560400
H30971	H3097	0.245400	0.029500	0.467000
H30981	H3098	0.210000	0.015100	0.420600
C10931	C1093	0.205200	0.081700	0.444300
H30991	H3099	0.223400	0.088900	0.434800
H31001	H3100	0.190400	0.097500	0.443200
N1831	N183	0.165420	0.023850	0.356090
C10941	C1094	0.211600	0.074200	0.477000
H31011	H3101	0.198800	0.086100	0.489800
H31021	H3102	0.232200	0.079100	0.481700
C10951	C1095	0.118600	0.094700	0.393200
H31031	H3103	0.111000	0.076900	0.383400
H31041	H3104	0.123500	0.089400	0.413700
H31051	H3105	0.129000	0.096200	0.336600
C10961	C1096	0.140100	0.014600	0.372800
H31061	H3106	0.145800	0.011400	0.393500
H31071	H3107	0.125000	0.030100	0.372200
C10971	C1097	0.187600	0.999500	0.356200
H31081	H3108	0.205100	0.005500	0.344900
H31091	H3109	0.193800	0.995300	0.376600
C10981	C1098	0.157400	0.028000	0.325500
H31101	H3110	0.143200	0.044400	0.324000
H31111	H3111	0.175100	0.033400	0.314100
H31121	H3112	0.161100	0.626400	0.064000
H31131	H3113	0.214400	0.597600	0.060400
H31141	H3114	0.245400	0.529500	0.967000
H31151	H3115	0.210000	0.515100	0.920600
C10991	C1099	0.205200	0.581700	0.944300
H31161	H3116	0.223400	0.588900	0.934800
H31171	H3117	0.190400	0.597500	0.943200
N1841	N184	0.165420	0.523850	0.856090
C11001	C1100	0.211600	0.574200	0.977000
H31181	H3118	0.198800	0.586100	0.989800
H31191	H3119	0.232200	0.579100	0.981700
C11011	C1101	0.118600	0.594700	0.893200
H31201	H3120	0.111000	0.576900	0.883400
H31211	H3121	0.123500	0.589400	0.913700
H31221	H3122	0.129000	0.596200	0.836600
C11021	C1102	0.140100	0.514600	0.872800
H31231	H3123	0.145800	0.511400	0.893500
H31241	H3124	0.125000	0.530100	0.872200
C11031	C1103	0.187600	0.499500	0.856200
H31251	H3125	0.205100	0.505500	0.844900
H31261	H3126	0.193800	0.495300	0.876600
C11041	C1104	0.157400	0.528000	0.825500
H31271	H3127	0.143200	0.544400	0.824000
H31281	H3128	0.175100	0.533400	0.814100
H31291	H3129	0.588900	0.623600	0.564000
H31301	H3130	0.535600	0.652400	0.560400
H31311	H3131	0.504600	0.720500	0.467000
H31321	H3132	0.540000	0.734900	0.420600
C11051	C1105	0.544800	0.668300	0.444300
H31331	H3133	0.526600	0.661100	0.434800
H31341	H3134	0.559600	0.652500	0.443200
N1851	N185	0.584580	0.726150	0.356090
C11061	C1106	0.538400	0.675800	0.477000
H31351	H3135	0.551200	0.663900	0.489800
H31361	H3136	0.517800	0.670900	0.481700
C11071	C1107	0.631400	0.655300	0.393200
H31371	H3137	0.639000	0.673100	0.383400
H31381	H3138	0.626500	0.660600	0.413700
H31391	H3139	0.621000	0.653800	0.336600
C11081	C1108	0.609900	0.735400	0.372800
H31401	H3140	0.604200	0.738600	0.393500
H31411	H3141	0.625000	0.719900	0.372200
C11091	C1109	0.562400	0.750500	0.356200
H31421	H3142	0.544900	0.744500	0.344900
H31431	H3143	0.556200	0.754700	0.376600
C11101	C1110	0.592600	0.722000	0.325500
H31441	H3144	0.606800	0.705600	0.324000
H31451	H3145	0.574900	0.716600	0.314100
H31461	H3146	0.588900	0.123600	0.064000
H31471	H3147	0.535600	0.152400	0.060400
H31481	H3148	0.504600	0.220500	0.967000
H31491	H3149	0.540000	0.234900	0.920600
C11111	C1111	0.544800	0.168300	0.944300
H31501	H3150	0.526600	0.161100	0.934800
H31511	H3151	0.559600	0.152500	0.943200
N1861	N186	0.584580	0.226150	0.856090
C11121	C1112	0.538400	0.175800	0.977000
H31521	H3152	0.551200	0.163900	0.989800
H31531	H3153	0.517800	0.170900	0.981700
C11131	C1113	0.631400	0.155300	0.893200
H31541	H3154	0.639000	0.173100	0.883400
H31551	H3155	0.626500	0.160600	0.913700
H31561	H3156	0.621000	0.153800	0.836600
C11141	C1114	0.609900	0.235400	0.872800
H31571	H3157	0.604200	0.238600	0.893500
H31581	H3158	0.625000	0.219900	0.872200
C11151	C1115	0.562400	0.250500	0.856200
H31591	H3159	0.544900	0.244500	0.844900
H31601	H3160	0.556200	0.254700	0.876600
C11161	C1116	0.592600	0.222000	0.825500
H31611	H3161	0.606800	0.205600	0.824000
H31621	H3162	0.574900	0.216600	0.814100
H31631	H3163	0.088900	0.623600	0.064000
H31641	H3164	0.035600	0.652400	0.060400
H31651	H3165	0.004600	0.720500	0.967000
H31661	H3166	0.040000	0.734900	0.920600
C11171	C1117	0.044800	0.668300	0.944300
H31671	H3167	0.026600	0.661100	0.934800
H31681	H3168	0.059600	0.652500	0.943200
N1871	N187	0.084580	0.726150	0.856090
C11181	C1118	0.038400	0.675800	0.977000
H31691	H3169	0.051200	0.663900	0.989800
H31701	H3170	0.017800	0.670900	0.981700
C11191	C1119	0.131400	0.655300	0.893200
H31711	H3171	0.139000	0.673100	0.883400
H31721	H3172	0.126500	0.660600	0.913700
H31731	H3173	0.121000	0.653800	0.836600
C11201	C1120	0.109900	0.735400	0.872800
H31741	H3174	0.104200	0.738600	0.893500
H31751	H3175	0.125000	0.719900	0.872200
C11211	C1121	0.062400	0.750500	0.856200
H31761	H3176	0.044900	0.744500	0.844900
H31771	H3177	0.056200	0.754700	0.876600
C11221	C1122	0.092600	0.722000	0.825500
H31781	H3178	0.106800	0.705600	0.824000
H31791	H3179	0.074900	0.716600	0.814100
H31801	H3180	0.088900	0.123600	0.564000
H31811	H3181	0.035600	0.152400	0.560400
H31821	H3182	0.004600	0.220500	0.467000
H31831	H3183	0.040000	0.234900	0.420600
C11231	C1123	0.044800	0.168300	0.444300
H31841	H3184	0.026600	0.161100	0.434800
H31851	H3185	0.059600	0.152500	0.443200
N1881	N188	0.084580	0.226150	0.356090
C11241	C1124	0.038400	0.175800	0.477000
H31861	H3186	0.051200	0.163900	0.489800
H31871	H3187	0.017800	0.170900	0.481700
C11251	C1125	0.131400	0.155300	0.393200
H31881	H3188	0.139000	0.173100	0.383400
H31891	H3189	0.126500	0.160600	0.413700
H31901	H3190	0.121000	0.153800	0.336600
C11261	C1126	0.109900	0.235400	0.372800
H31911	H3191	0.104200	0.238600	0.393500
H31921	H3192	0.125000	0.219900	0.372200
C11271	C1127	0.062400	0.250500	0.356200
H31931	H3193	0.044900	0.244500	0.344900
H31941	H3194	0.056200	0.254700	0.376600
C11281	C1128	0.092600	0.222000	0.325500
H31951	H3195	0.106800	0.205600	0.324000
H31961	H3196	0.074900	0.216600	0.314100
H31971	H3197	0.088900	0.626400	0.186000
H31981	H3198	0.035600	0.597600	0.189600
H31991	H3199	0.004600	0.529500	0.283000
H32001	H3200	0.040000	0.515100	0.329400
C11291	C1129	0.044800	0.581700	0.305700
H32011	H3201	0.026600	0.588900	0.315200
H32021	H3202	0.059600	0.597500	0.306800
N1891	N189	0.084580	0.523850	0.393910
C11301	C1130	0.038400	0.574200	0.273000
H32031	H3203	0.051200	0.586100	0.260200
H32041	H3204	0.017800	0.579100	0.268300
C11311	C1131	0.131400	0.594700	0.356800
H32051	H3205	0.139000	0.576900	0.366600
H32061	H3206	0.126500	0.589400	0.336300
H32071	H3207	0.121000	0.596200	0.413400
C11321	C1132	0.109900	0.514600	0.377200
H32081	H3208	0.104200	0.511400	0.356500
H32091	H3209	0.125000	0.530100	0.377800
C11331	C1133	0.062400	0.499500	0.393800
H32101	H3210	0.044900	0.505500	0.405100
H32111	H3211	0.056200	0.495300	0.373400
C11341	C1134	0.092600	0.528000	0.424500
H32121	H3212	0.106800	0.544400	0.426000
H32131	H3213	0.074900	0.533400	0.435900
H32141	H3214	0.088900	0.126400	0.686000
H32151	H3215	0.035600	0.097600	0.689600
H32161	H3216	0.004600	0.029500	0.783000
H32171	H3217	0.040000	0.015100	0.829400
C11351	C1135	0.044800	0.081700	0.805700
H32181	H3218	0.026600	0.088900	0.815200
H32191	H3219	0.059600	0.097500	0.806800
N1901	N190	0.084580	0.023850	0.893910
C11361	C1136	0.038400	0.074200	0.773000
H32201	H3220	0.051200	0.086100	0.760200
H32211	H3221	0.017800	0.079100	0.768300
C11371	C1137	0.131400	0.094700	0.856800
H32221	H3222	0.139000	0.076900	0.866600
H32231	H3223	0.126500	0.089400	0.836300
H32241	H3224	0.121000	0.096200	0.913400
C11381	C1138	0.109900	0.014600	0.877200
H32251	H3225	0.104200	0.011400	0.856500
H32261	H3226	0.125000	0.030100	0.877800
C11391	C1139	0.062400	0.999500	0.893800
H32271	H3227	0.044900	0.005500	0.905100
H32281	H3228	0.056200	0.995300	0.873400
C11401	C1140	0.092600	0.028000	0.924500
H32291	H3229	0.106800	0.044400	0.926000
H32301	H3230	0.074900	0.033400	0.935900
H32311	H3231	0.588900	0.626400	0.686000
H32321	H3232	0.535600	0.597600	0.689600
H32331	H3233	0.504600	0.529500	0.783000
H32341	H3234	0.540000	0.515100	0.829400
C11411	C1141	0.544800	0.581700	0.805700
H32351	H3235	0.526600	0.588900	0.815200
H32361	H3236	0.559600	0.597500	0.806800
N1911	N191	0.584580	0.523850	0.893910
C11421	C1142	0.538400	0.574200	0.773000
H32371	H3237	0.551200	0.586100	0.760200
H32381	H3238	0.517800	0.579100	0.768300
C11431	C1143	0.631400	0.594700	0.856800
H32391	H3239	0.639000	0.576900	0.866600
H32401	H3240	0.626500	0.589400	0.836300
H32411	H3241	0.621000	0.596200	0.913400
C11441	C1144	0.609900	0.514600	0.877200
H32421	H3242	0.604200	0.511400	0.856500
H32431	H3243	0.625000	0.530100	0.877800
C11451	C1145	0.562400	0.499500	0.893800
H32441	H3244	0.544900	0.505500	0.905100
H32451	H3245	0.556200	0.495300	0.873400
C11461	C1146	0.592600	0.528000	0.924500
H32461	H3246	0.606800	0.544400	0.926000
H32471	H3247	0.574900	0.533400	0.935900
H32481	H3248	0.588900	0.126400	0.186000
H32491	H3249	0.535600	0.097600	0.189600
H32501	H3250	0.504600	0.029500	0.283000
H32511	H3251	0.540000	0.015100	0.329400
C11471	C1147	0.544800	0.081700	0.305700
H32521	H3252	0.526600	0.088900	0.315200
H32531	H3253	0.559600	0.097500	0.306800
N1921	N192	0.584580	0.023850	0.393910
C11481	C1148	0.538400	0.074200	0.273000
H32541	H3254	0.551200	0.086100	0.260200
H32551	H3255	0.517800	0.079100	0.268300
C11491	C1149	0.631400	0.094700	0.356800
H32561	H3256	0.639000	0.076900	0.366600
H32571	H3257	0.626500	0.089400	0.336300
H32581	H3258	0.621000	0.096200	0.413400
C11501	C1150	0.609900	0.014600	0.377200
H32591	H3259	0.604200	0.011400	0.356500
H32601	H3260	0.625000	0.030100	0.377800
C11511	C1151	0.562400	0.999500	0.393800
H32611	H3261	0.544900	0.005500	0.405100
H32621	H3262	0.556200	0.995300	0.373400
C11521	C1152	0.592600	0.028000	0.424500
H32631	H3263	0.606800	0.044400	0.426000
H32641	H3264	0.574900	0.033400	0.435900
Ag11	Ag1	0.125000	0.625000	0.125000
Ag21	Ag2	0.125000	0.125000	0.625000
Ag31	Ag3	0.625000	0.625000	0.625000
Ag41	Ag4	0.625000	0.125000	0.125000
Ag51	Ag5	0.375000	0.375000	0.375000
Ag61	Ag6	0.375000	0.875000	0.875000
Ag71	Ag7	0.875000	0.375000	0.875000
Ag81	Ag8	0.875000	0.875000	0.375000
N1931	N193	0.154800	0.595200	0.095200
Ag91	Ag9	0.217600	0.532400	0.032400
N1941	N194	0.187500	0.562500	0.062500
N1951	N195	0.595200	0.654800	0.595200
Ag101	Ag10	0.532400	0.717600	0.532400
N1961	N196	0.562500	0.687500	0.562500
N1971	N197	0.095200	0.095200	0.654800
Ag111	Ag11	0.032400	0.032400	0.717600
N1981	N198	0.062500	0.062500	0.687500
N1991	N199	0.654800	0.154800	0.154800
Ag121	Ag12	0.717600	0.217600	0.217600
N2001	N200	0.687500	0.187500	0.187500
N2011	N201	0.654800	0.654800	0.654800
Ag131	Ag13	0.717600	0.717600	0.717600
N2021	N202	0.687500	0.687500	0.687500
N2031	N203	0.095200	0.154800	0.595200
Ag141	Ag14	0.032400	0.217600	0.532400
N2041	N204	0.062500	0.187500	0.562500
N2051	N205	0.595200	0.595200	0.654800
Ag151	Ag15	0.532400	0.532400	0.717600
N2061	N206	0.562500	0.562500	0.687500
N2071	N207	0.654800	0.095200	0.095200
Ag161	Ag16	0.717600	0.032400	0.032400
N2081	N208	0.687500	0.062500	0.062500
N2091	N209	0.154800	0.654800	0.154800
Ag171	Ag17	0.217600	0.717600	0.217600
N2101	N210	0.187500	0.687500	0.187500
N2111	N211	0.595200	0.095200	0.154800
Ag181	Ag18	0.532400	0.032400	0.217600
N2121	N212	0.562500	0.062500	0.187500
N2131	N213	0.654800	0.595200	0.595200
Ag191	Ag19	0.717600	0.532400	0.532400
N2141	N214	0.687500	0.562500	0.562500
N2151	N215	0.095200	0.654800	0.095200
Ag201	Ag20	0.032400	0.717600	0.032400
N2161	N216	0.062500	0.687500	0.062500
N2171	N217	0.154800	0.154800	0.654800
Ag211	Ag21	0.217600	0.217600	0.717600
N2181	N218	0.187500	0.187500	0.687500
N2191	N219	0.345200	0.404800	0.404800
Ag221	Ag22	0.282400	0.467600	0.467600
N2201	N220	0.312500	0.437500	0.437500
N2211	N221	0.404800	0.845200	0.904800
Ag231	Ag23	0.467600	0.782400	0.967600
N2221	N222	0.437500	0.812500	0.937500
N2231	N223	0.845200	0.345200	0.845200
Ag241	Ag24	0.782400	0.282400	0.782400
N2241	N224	0.812500	0.312500	0.812500
N2251	N225	0.904800	0.904800	0.345200
Ag251	Ag25	0.967600	0.967600	0.282400
N2261	N226	0.937500	0.937500	0.312500
N2271	N227	0.904800	0.345200	0.904800
Ag261	Ag26	0.967600	0.282400	0.967600
N2281	N228	0.937500	0.312500	0.937500
N2291	N229	0.345200	0.845200	0.845200
Ag271	Ag27	0.282400	0.782400	0.782400
N2301	N230	0.312500	0.812500	0.812500
N2311	N231	0.345200	0.345200	0.345200
Ag281	Ag28	0.282400	0.282400	0.282400
N2321	N232	0.312500	0.312500	0.312500
N2331	N233	0.845200	0.904800	0.404800
Ag291	Ag29	0.782400	0.967600	0.467600
N2341	N234	0.812500	0.937500	0.437500
N2351	N235	0.404800	0.404800	0.345200
Ag301	Ag30	0.467600	0.467600	0.282400
N2361	N236	0.437500	0.437500	0.312500
N2371	N237	0.845200	0.845200	0.345200
Ag311	Ag31	0.782400	0.782400	0.282400
N2381	N238	0.812500	0.812500	0.312500
N2391	N239	0.345200	0.904800	0.904800
Ag321	Ag32	0.282400	0.967600	0.967600
N2401	N240	0.312500	0.937500	0.937500
N2411	N241	0.404800	0.345200	0.404800
Ag331	Ag33	0.467600	0.282400	0.467600
N2421	N242	0.437500	0.312500	0.437500
N2431	N243	0.904800	0.404800	0.845200
Ag341	Ag34	0.967600	0.467600	0.782400
N2441	N244	0.937500	0.437500	0.812500
N2451	N245	0.845200	0.404800	0.904800
Ag351	Ag35	0.782400	0.467600	0.967600
N2461	N246	0.812500	0.437500	0.937500
N2471	N247	0.904800	0.845200	0.404800
Ag361	Ag36	0.967600	0.782400	0.467600
N2481	N248	0.937500	0.812500	0.437500
N2491	N249	0.404800	0.904800	0.845200
Ag371	Ag37	0.467600	0.967600	0.782400
N2501	N250	0.437500	0.937500	0.812500
N2511	N251	0.595200	0.154800	0.095200
Ag381	Ag38	0.532400	0.217600	0.032400
N2521	N252	0.562500	0.187500	0.062500
N2531	N253	0.154800	0.095200	0.595200
Ag391	Ag39	0.217600	0.032400	0.532400
N2541	N254	0.187500	0.062500	0.562500
N2551	N255	0.095200	0.595200	0.154800
Ag401	Ag40	0.032400	0.532400	0.217600
N2561	N256	0.062500	0.562500	0.187500
C11531	C1153	0.173500	0.613700	0.076500
C11541	C1154	0.193500	0.593400	0.056500
C11551	C1155	0.173500	0.113700	0.576500
C11561	C1156	0.193500	0.093400	0.556500
C11571	C1157	0.673500	0.113700	0.076500
C11581	C1158	0.693500	0.093400	0.056500
C11591	C1159	0.576500	0.636300	0.576500
C11601	C1160	0.556500	0.656600	0.556500
C11611	C1161	0.576500	0.136300	0.076500
C11621	C1162	0.556500	0.156600	0.056500
C11631	C1163	0.076500	0.636300	0.076500
C11641	C1164	0.056500	0.656600	0.056500
C11651	C1165	0.076500	0.136300	0.576500
C11661	C1166	0.056500	0.156600	0.556500
C11671	C1167	0.076500	0.113700	0.673500
C11681	C1168	0.056500	0.093400	0.693500
C11691	C1169	0.576500	0.113700	0.173500
C11701	C1170	0.556500	0.093400	0.193500
C11711	C1171	0.673500	0.136300	0.173500
C11721	C1172	0.693500	0.156600	0.193500
C11731	C1173	0.673500	0.636300	0.673500
C11741	C1174	0.693500	0.656600	0.693500
C11751	C1175	0.076500	0.173500	0.613700
C11761	C1176	0.056500	0.193500	0.593400
C11771	C1177	0.076500	0.673500	0.113700
C11781	C1178	0.056500	0.693500	0.093400
C11791	C1179	0.576500	0.173500	0.113700
C11801	C1180	0.556500	0.193500	0.093400
C11811	C1181	0.576500	0.576500	0.636300
C11821	C1182	0.556500	0.556500	0.656600
C11831	C1183	0.576500	0.076500	0.136300
C11841	C1184	0.556500	0.056500	0.156600
C11851	C1185	0.076500	0.576500	0.136300
C11861	C1186	0.056500	0.556500	0.156600
C11871	C1187	0.076500	0.076500	0.636300
C11881	C1188	0.056500	0.056500	0.656600
C11891	C1189	0.673500	0.076500	0.113700
C11901	C1190	0.693500	0.056500	0.093400
C11911	C1191	0.673500	0.576500	0.613700
C11921	C1192	0.693500	0.556500	0.593400
C11931	C1193	0.173500	0.673500	0.136300
C11941	C1194	0.193500	0.693500	0.156600
C11951	C1195	0.173500	0.173500	0.636300
C11961	C1196	0.193500	0.193500	0.656600
C11971	C1197	0.673500	0.673500	0.636300
C11981	C1198	0.693500	0.693500	0.656600
C11991	C1199	0.613700	0.076500	0.173500
C12001	C1200	0.593400	0.056500	0.193500
C12011	C1201	0.613700	0.576500	0.673500
C12021	C1202	0.593400	0.556500	0.693500
C12031	C1203	0.113700	0.076500	0.673500
C12041	C1204	0.093400	0.056500	0.693500
C12051	C1205	0.636300	0.576500	0.576500
C12061	C1206	0.656600	0.556500	0.556500
C12071	C1207	0.636300	0.076500	0.076500
C12081	C1208	0.656600	0.056500	0.056500
C12091	C1209	0.136300	0.576500	0.076500
C12101	C1210	0.156600	0.556500	0.056500
C12111	C1211	0.136300	0.076500	0.576500
C12121	C1212	0.156600	0.056500	0.556500
C12131	C1213	0.113700	0.673500	0.076500
C12141	C1214	0.093400	0.693500	0.056500
C12151	C1215	0.113700	0.173500	0.576500
C12161	C1216	0.093400	0.193500	0.556500
C12171	C1217	0.136300	0.173500	0.673500
C12181	C1218	0.156600	0.193500	0.693500
C12191	C1219	0.636300	0.173500	0.173500
C12201	C1220	0.656600	0.193500	0.193500
C12211	C1221	0.636300	0.673500	0.673500
C12221	C1222	0.656600	0.693500	0.693500
C12231	C1223	0.363700	0.423500	0.423500
C12241	C1224	0.343400	0.443500	0.443500
C12251	C1225	0.363700	0.923500	0.923500
C12261	C1226	0.343400	0.943500	0.943500
C12271	C1227	0.863700	0.423500	0.923500
C12281	C1228	0.843400	0.443500	0.943500
C12291	C1229	0.863700	0.923500	0.423500
C12301	C1230	0.843400	0.943500	0.443500
C12311	C1231	0.386300	0.826500	0.923500
C12321	C1232	0.406600	0.806500	0.943500
C12331	C1233	0.386300	0.326500	0.423500
C12341	C1234	0.406600	0.306500	0.443500
C12351	C1235	0.863700	0.326500	0.826500
C12361	C1236	0.843400	0.306500	0.806500
C12371	C1237	0.363700	0.326500	0.326500
C12381	C1238	0.343400	0.306500	0.306500
C12391	C1239	0.363700	0.826500	0.826500
C12401	C1240	0.343400	0.806500	0.806500
C12411	C1241	0.886300	0.923500	0.326500
C12421	C1242	0.906600	0.943500	0.306500
C12431	C1243	0.886300	0.423500	0.826500
C12441	C1244	0.906600	0.443500	0.806500
C12451	C1245	0.923500	0.326500	0.886300
C12461	C1246	0.943500	0.306500	0.906600
C12471	C1247	0.423500	0.326500	0.386300
C12481	C1248	0.443500	0.306500	0.406600
C12491	C1249	0.326500	0.826500	0.863700
C12501	C1250	0.306500	0.806500	0.843400
C12511	C1251	0.326500	0.326500	0.363700
C12521	C1252	0.306500	0.306500	0.343400
C12531	C1253	0.826500	0.826500	0.363700
C12541	C1254	0.806500	0.806500	0.343400
C12551	C1255	0.826500	0.923500	0.386300
C12561	C1256	0.806500	0.943500	0.406600
C12571	C1257	0.826500	0.423500	0.886300
C12581	C1258	0.806500	0.443500	0.906600
C12591	C1259	0.423500	0.423500	0.363700
C12601	C1260	0.443500	0.443500	0.343400
C12611	C1261	0.423500	0.923500	0.863700
C12621	C1262	0.443500	0.943500	0.843400
C12631	C1263	0.923500	0.423500	0.863700
C12641	C1264	0.943500	0.443500	0.843400
C12651	C1265	0.923500	0.923500	0.363700
C12661	C1266	0.943500	0.943500	0.343400
C12671	C1267	0.826500	0.863700	0.326500
C12681	C1268	0.806500	0.843400	0.306500
C12691	C1269	0.826500	0.363700	0.826500
C12701	C1270	0.806500	0.343400	0.806500
C12711	C1271	0.326500	0.886300	0.923500
C12721	C1272	0.306500	0.906600	0.943500
C12731	C1273	0.326500	0.386300	0.423500
C12741	C1274	0.306500	0.406600	0.443500
C12751	C1275	0.423500	0.363700	0.423500
C12761	C1276	0.443500	0.343400	0.443500
C12771	C1277	0.423500	0.863700	0.923500
C12781	C1278	0.443500	0.843400	0.943500
C12791	C1279	0.923500	0.363700	0.923500
C12801	C1280	0.943500	0.343400	0.943500
C12811	C1281	0.923500	0.863700	0.423500
C12821	C1282	0.943500	0.843400	0.443500
C12831	C1283	0.923500	0.386300	0.826500
C12841	C1284	0.943500	0.406600	0.806500
C12851	C1285	0.423500	0.386300	0.326500
C12861	C1286	0.443500	0.406600	0.306500
C12871	C1287	0.826500	0.386300	0.923500
C12881	C1288	0.806500	0.406600	0.943500
C12891	C1289	0.826500	0.886300	0.423500
C12901	C1290	0.806500	0.906600	0.443500
C12911	C1291	0.923500	0.886300	0.326500
C12921	C1292	0.943500	0.906600	0.306500
C12931	C1293	0.423500	0.886300	0.826500
C12941	C1294	0.443500	0.906600	0.806500
C12951	C1295	0.326500	0.863700	0.826500
C12961	C1296	0.306500	0.843400	0.806500
C12971	C1297	0.326500	0.363700	0.326500
C12981	C1298	0.306500	0.343400	0.306500
C12991	C1299	0.923500	0.826500	0.386300
C13001	C1300	0.943500	0.806500	0.406600
C13011	C1301	0.423500	0.826500	0.886300
C13021	C1302	0.443500	0.806500	0.906600
C13031	C1303	0.326500	0.923500	0.886300
C13041	C1304	0.306500	0.943500	0.906600
C13051	C1305	0.326500	0.423500	0.386300
C13061	C1306	0.306500	0.443500	0.406600
C13071	C1307	0.826500	0.326500	0.863700
C13081	C1308	0.806500	0.306500	0.843400
C13091	C1309	0.386300	0.923500	0.826500
C13101	C1310	0.406600	0.943500	0.806500
C13111	C1311	0.386300	0.423500	0.326500
C13121	C1312	0.406600	0.443500	0.306500
C13131	C1313	0.886300	0.326500	0.923500
C13141	C1314	0.906600	0.306500	0.943500
C13151	C1315	0.886300	0.826500	0.423500
C13161	C1316	0.906600	0.806500	0.443500
C13171	C1317	0.863700	0.826500	0.326500
C13181	C1318	0.843400	0.806500	0.306500
C13191	C1319	0.613700	0.173500	0.076500
C13201	C1320	0.593400	0.193500	0.056500
C13211	C1321	0.613700	0.673500	0.576500
C13221	C1322	0.593400	0.693500	0.556500
C13231	C1323	0.136300	0.673500	0.173500
C13241	C1324	0.156600	0.693500	0.193500
C13251	C1325	0.113700	0.576500	0.173500
C13261	C1326	0.093400	0.556500	0.193500
C13271	C1327	0.576500	0.673500	0.613700
C13281	C1328	0.556500	0.693500	0.593400
C13291	C1329	0.673500	0.173500	0.136300
C13301	C1330	0.693500	0.193500	0.156600
C13311	C1331	0.173500	0.076500	0.613700
C13321	C1332	0.193500	0.056500	0.593400
C13331	C1333	0.173500	0.576500	0.113700
C13341	C1334	0.193500	0.556500	0.093400
C13351	C1335	0.173500	0.136300	0.673500
C13361	C1336	0.193500	0.156600	0.693500
C13371	C1337	0.173500	0.636300	0.173500
C13381	C1338	0.193500	0.656600	0.193500
C13391	C1339	0.673500	0.613700	0.576500
C13401	C1340	0.693500	0.593400	0.556500
C13411	C1341	0.076500	0.613700	0.173500
C13421	C1342	0.056500	0.593400	0.193500
C13431	C1343	0.576500	0.613700	0.673500
C13441	C1344	0.556500	0.593400	0.693500
Ag411	Ag41	0.371340	0.567600	0.067600
N2571	N257	0.267200	0.543410	0.043410
C13451	C1345	0.286800	0.525600	0.025600
N2581	N258	0.321400	0.555540	0.055540
C13461	C1346	0.319300	0.533100	0.033100
N2591	N259	0.372100	0.604740	0.104740
C13471	C1347	0.402700	0.613600	0.113600
Ag421	Ag42	0.871340	0.567600	0.567600
N2601	N260	0.767200	0.543410	0.543410
C13481	C1348	0.786800	0.525600	0.525600
N2611	N261	0.821400	0.555540	0.555540
C13491	C1349	0.819300	0.533100	0.533100
N2621	N262	0.872100	0.604740	0.604740
C13501	C1350	0.902700	0.613600	0.613600
Ag431	Ag43	0.378660	0.682400	0.567600
N2631	N263	0.482800	0.706590	0.543410
C13511	C1351	0.463200	0.724400	0.525600
N2641	N264	0.428600	0.694460	0.555540
C13521	C1352	0.430700	0.716900	0.533100
N2651	N265	0.377900	0.645260	0.604740
C13531	C1353	0.347300	0.636400	0.613600
Ag441	Ag44	0.378660	0.182400	0.067600
N2661	N266	0.482800	0.206590	0.043410
C13541	C1354	0.463200	0.224400	0.025600
N2671	N267	0.428600	0.194460	0.055540
C13551	C1355	0.430700	0.216900	0.033100
N2681	N268	0.377900	0.145260	0.104740
C13561	C1356	0.347300	0.136400	0.113600
Ag451	Ag45	0.878660	0.067600	0.682400
N2691	N269	0.982800	0.043410	0.706590
C13571	C1357	0.963200	0.025600	0.724400
N2701	N270	0.928600	0.055540	0.694460
C13581	C1358	0.930700	0.033100	0.716900
N2711	N271	0.877900	0.104740	0.645260
C13591	C1359	0.847300	0.113600	0.636400
Ag461	Ag46	0.878660	0.567600	0.182400
N2721	N272	0.982800	0.543410	0.206590
C13601	C1360	0.963200	0.525600	0.224400
N2731	N273	0.928600	0.555540	0.194460
C13611	C1361	0.930700	0.533100	0.216900
N2741	N274	0.877900	0.604740	0.145260
C13621	C1362	0.847300	0.613600	0.136400
Ag471	Ag47	0.871340	0.182400	0.182400
N2751	N275	0.767200	0.206590	0.206590
C13631	C1363	0.786800	0.224400	0.224400
N2761	N276	0.821400	0.194460	0.194460
C13641	C1364	0.819300	0.216900	0.216900
N2771	N277	0.872100	0.145260	0.145260
C13651	C1365	0.902700	0.136400	0.136400
Ag481	Ag48	0.871340	0.682400	0.682400
N2781	N278	0.767200	0.706590	0.706590
C13661	C1366	0.786800	0.724400	0.724400
N2791	N279	0.821400	0.694460	0.694460
C13671	C1367	0.819300	0.716900	0.716900
N2801	N280	0.872100	0.645260	0.645260
C13681	C1368	0.902700	0.636400	0.636400
Ag491	Ag49	0.371340	0.182400	0.682400
N2811	N281	0.267200	0.206590	0.706590
C13691	C1369	0.286800	0.224400	0.724400
N2821	N282	0.321400	0.194460	0.694460
C13701	C1370	0.319300	0.216900	0.716900
N2831	N283	0.372100	0.145260	0.645260
C13711	C1371	0.402700	0.136400	0.636400
Ag501	Ag50	0.371340	0.682400	0.182400
N2841	N284	0.267200	0.706590	0.206590
C13721	C1372	0.286800	0.724400	0.224400
N2851	N285	0.321400	0.694460	0.194460
C13731	C1373	0.319300	0.716900	0.216900
N2861	N286	0.372100	0.645260	0.145260
C13741	C1374	0.402700	0.636400	0.136400
Ag511	Ag51	0.067600	0.371340	0.567600
N2871	N287	0.043410	0.267200	0.543410
C13751	C1375	0.025600	0.286800	0.525600
N2881	N288	0.055540	0.321400	0.555540
C13761	C1376	0.033100	0.319300	0.533100
N2891	N289	0.104740	0.372100	0.604740
C13771	C1377	0.113600	0.402700	0.613600
Ag521	Ag52	0.067600	0.871340	0.067600
N2901	N290	0.043410	0.767200	0.043410
C13781	C1378	0.025600	0.786800	0.025600
N2911	N291	0.055540	0.821400	0.055540
C13791	C1379	0.033100	0.819300	0.033100
N2921	N292	0.104740	0.872100	0.104740
C13801	C1380	0.113600	0.902700	0.113600
Ag531	Ag53	0.567600	0.871340	0.567600
N2931	N293	0.543410	0.767200	0.543410
C13811	C1381	0.525600	0.786800	0.525600
N2941	N294	0.555540	0.821400	0.555540
C13821	C1382	0.533100	0.819300	0.533100
N2951	N295	0.604740	0.872100	0.604740
C13831	C1383	0.613600	0.902700	0.613600
Ag541	Ag54	0.567600	0.378660	0.682400
N2961	N296	0.543410	0.482800	0.706590
C13841	C1384	0.525600	0.463200	0.724400
N2971	N297	0.555540	0.428600	0.694460
C13851	C1385	0.533100	0.430700	0.716900
N2981	N298	0.604740	0.377900	0.645260
C13861	C1386	0.613600	0.347300	0.636400
Ag551	Ag55	0.567600	0.878660	0.182400
N2991	N299	0.543410	0.982800	0.206590
C13871	C1387	0.525600	0.963200	0.224400
N3001	N300	0.555540	0.928600	0.194460
C13881	C1388	0.533100	0.930700	0.216900
N3011	N301	0.604740	0.877900	0.145260
C13891	C1389	0.613600	0.847300	0.136400
Ag561	Ag56	0.682400	0.878660	0.067600
N3021	N302	0.706590	0.982800	0.043410
C13901	C1390	0.724400	0.963200	0.025600
N3031	N303	0.694460	0.928600	0.055540
C13911	C1391	0.716900	0.930700	0.033100
N3041	N304	0.645260	0.877900	0.104740
C13921	C1392	0.636400	0.847300	0.113600
Ag571	Ag57	0.182400	0.878660	0.567600
N3051	N305	0.206590	0.982800	0.543410
C13931	C1393	0.224400	0.963200	0.525600
N3061	N306	0.194460	0.928600	0.555540
C13941	C1394	0.216900	0.930700	0.533100
N3071	N307	0.145260	0.877900	0.604740
C13951	C1395	0.136400	0.847300	0.613600
Ag581	Ag58	0.182400	0.871340	0.182400
N3081	N308	0.206590	0.767200	0.206590
C13961	C1396	0.224400	0.786800	0.224400
N3091	N309	0.194460	0.821400	0.194460
C13971	C1397	0.216900	0.819300	0.216900
N3101	N310	0.145260	0.872100	0.145260
C13981	C1398	0.136400	0.902700	0.136400
Ag591	Ag59	0.182400	0.371340	0.682400
N3111	N311	0.206590	0.267200	0.706590
C13991	C1399	0.224400	0.286800	0.724400
N3121	N312	0.194460	0.321400	0.694460
C14001	C1400	0.216900	0.319300	0.716900
N3131	N313	0.145260	0.372100	0.645260
C14011	C1401	0.136400	0.402700	0.636400
Ag601	Ag60	0.682400	0.871340	0.682400
N3141	N314	0.706590	0.767200	0.706590
C14021	C1402	0.724400	0.786800	0.724400
N3151	N315	0.694460	0.821400	0.694460
C14031	C1403	0.716900	0.819300	0.716900
N3161	N316	0.645260	0.872100	0.645260
C14041	C1404	0.636400	0.902700	0.636400
Ag611	Ag61	0.682400	0.371340	0.182400
N3171	N317	0.706590	0.267200	0.206590
C14051	C1405	0.724400	0.286800	0.224400
N3181	N318	0.694460	0.321400	0.194460
C14061	C1406	0.716900	0.319300	0.216900
N3191	N319	0.645260	0.372100	0.145260
C14071	C1407	0.636400	0.402700	0.136400
Ag621	Ag62	0.567600	0.067600	0.371340
N3201	N320	0.543410	0.043410	0.267200
C14081	C1408	0.525600	0.025600	0.286800
N3211	N321	0.555540	0.055540	0.321400
C14091	C1409	0.533100	0.033100	0.319300
N3221	N322	0.604740	0.104740	0.372100
C14101	C1410	0.613600	0.113600	0.402700
Ag631	Ag63	0.567600	0.567600	0.871340
N3231	N323	0.543410	0.543410	0.767200
C14111	C1411	0.525600	0.525600	0.786800
N3241	N324	0.555540	0.555540	0.821400
C14121	C1412	0.533100	0.533100	0.819300
N3251	N325	0.604740	0.604740	0.872100
C14131	C1413	0.613600	0.613600	0.902700
Ag641	Ag64	0.682400	0.567600	0.378660
N3261	N326	0.706590	0.543410	0.482800
C14141	C1414	0.724400	0.525600	0.463200
N3271	N327	0.694460	0.555540	0.428600
C14151	C1415	0.716900	0.533100	0.430700
N3281	N328	0.645260	0.604740	0.377900
C14161	C1416	0.636400	0.613600	0.347300
Ag651	Ag65	0.182400	0.567600	0.878660
N3291	N329	0.206590	0.543410	0.982800
C14171	C1417	0.224400	0.525600	0.963200
N3301	N330	0.194460	0.555540	0.928600
C14181	C1418	0.216900	0.533100	0.930700
N3311	N331	0.145260	0.604740	0.877900
C14191	C1419	0.136400	0.613600	0.847300
Ag661	Ag66	0.067600	0.682400	0.878660
N3321	N332	0.043410	0.706590	0.982800
C14201	C1420	0.025600	0.724400	0.963200
N3331	N333	0.055540	0.694460	0.928600
C14211	C1421	0.033100	0.716900	0.930700
N3341	N334	0.104740	0.645260	0.877900
C14221	C1422	0.113600	0.636400	0.847300
Ag671	Ag67	0.067600	0.182400	0.378660
N3351	N335	0.043410	0.206590	0.482800
C14231	C1423	0.025600	0.224400	0.463200
N3361	N336	0.055540	0.194460	0.428600
C14241	C1424	0.033100	0.216900	0.430700
N3371	N337	0.104740	0.145260	0.377900
C14251	C1425	0.113600	0.136400	0.347300
Ag681	Ag68	0.182400	0.182400	0.871340
N3381	N338	0.206590	0.206590	0.767200
C14261	C1426	0.224400	0.224400	0.786800
N3391	N339	0.194460	0.194460	0.821400
C14271	C1427	0.216900	0.216900	0.819300
N3401	N340	0.145260	0.145260	0.872100
C14281	C1428	0.136400	0.136400	0.902700
Ag691	Ag69	0.182400	0.682400	0.371340
N3411	N341	0.206590	0.706590	0.267200
C14291	C1429	0.224400	0.724400	0.286800
N3421	N342	0.194460	0.694460	0.321400
C14301	C1430	0.216900	0.716900	0.319300
N3431	N343	0.145260	0.645260	0.372100
C14311	C1431	0.136400	0.636400	0.402700
Ag701	Ag70	0.682400	0.182400	0.371340
N3441	N344	0.706590	0.206590	0.267200
C14321	C1432	0.724400	0.224400	0.286800
N3451	N345	0.694460	0.194460	0.321400
C14331	C1433	0.716900	0.216900	0.319300
N3461	N346	0.645260	0.145260	0.372100
C14341	C1434	0.636400	0.136400	0.402700
Ag711	Ag71	0.682400	0.682400	0.871340
N3471	N347	0.706590	0.706590	0.767200
C14351	C1435	0.724400	0.724400	0.786800
N3481	N348	0.694460	0.694460	0.821400
C14361	C1436	0.716900	0.716900	0.819300
N3491	N349	0.645260	0.645260	0.872100
C14371	C1437	0.636400	0.636400	0.902700
Ag721	Ag72	0.317600	0.621340	0.432400
N3501	N350	0.293410	0.517200	0.456590
C14381	C1438	0.275600	0.536800	0.474400
N3511	N351	0.305540	0.571400	0.444460
C14391	C1439	0.283100	0.569300	0.466900
N3521	N352	0.354740	0.622100	0.395260
C14401	C1440	0.363600	0.652700	0.386400
Ag731	Ag73	0.817600	0.621340	0.932400
N3531	N353	0.793410	0.517200	0.956590
C14411	C1441	0.775600	0.536800	0.974400
N3541	N354	0.805540	0.571400	0.944460
C14421	C1442	0.783100	0.569300	0.966900
N3551	N355	0.854740	0.622100	0.895260
C14431	C1443	0.863600	0.652700	0.886400
Ag741	Ag74	0.432400	0.628660	0.932400
N3561	N356	0.456590	0.732800	0.956590
C14441	C1444	0.474400	0.713200	0.974400
N3571	N357	0.444460	0.678600	0.944460
C14451	C1445	0.466900	0.680700	0.966900
N3581	N358	0.395260	0.627900	0.895260
C14461	C1446	0.386400	0.597300	0.886400
Ag751	Ag75	0.432400	0.128660	0.432400
N3591	N359	0.456590	0.232800	0.456590
C14471	C1447	0.474400	0.213200	0.474400
N3601	N360	0.444460	0.178600	0.444460
C14481	C1448	0.466900	0.180700	0.466900
N3611	N361	0.395260	0.127900	0.395260
C14491	C1449	0.386400	0.097300	0.386400
Ag761	Ag76	0.932400	0.128660	0.932400
N3621	N362	0.956590	0.232800	0.956590
C14501	C1450	0.974400	0.213200	0.974400
N3631	N363	0.944460	0.178600	0.944460
C14511	C1451	0.966900	0.180700	0.966900
N3641	N364	0.895260	0.127900	0.895260
C14521	C1452	0.886400	0.097300	0.886400
Ag771	Ag77	0.817600	0.128660	0.817600
N3651	N365	0.793410	0.232800	0.793410
C14531	C1453	0.775600	0.213200	0.775600
N3661	N366	0.805540	0.178600	0.805540
C14541	C1454	0.783100	0.180700	0.783100
N3671	N367	0.854740	0.127900	0.854740
C14551	C1455	0.863600	0.097300	0.863600
Ag781	Ag78	0.817600	0.628660	0.317600
N3681	N368	0.793410	0.732800	0.293410
C14561	C1456	0.775600	0.713200	0.275600
N3691	N369	0.805540	0.678600	0.305540
C14571	C1457	0.783100	0.680700	0.283100
N3701	N370	0.854740	0.627900	0.354740
C14581	C1458	0.863600	0.597300	0.363600
Ag791	Ag79	0.317600	0.128660	0.317600
N3711	N371	0.293410	0.232800	0.293410
C14591	C1459	0.275600	0.213200	0.275600
N3721	N372	0.305540	0.178600	0.305540
C14601	C1460	0.283100	0.180700	0.283100
N3731	N373	0.354740	0.127900	0.354740
C14611	C1461	0.363600	0.097300	0.363600
Ag801	Ag80	0.317600	0.628660	0.817600
N3741	N374	0.293410	0.732800	0.793410
C14621	C1462	0.275600	0.713200	0.775600
N3751	N375	0.305540	0.678600	0.805540
C14631	C1463	0.283100	0.680700	0.783100
N3761	N376	0.354740	0.627900	0.854740
C14641	C1464	0.363600	0.597300	0.863600
Ag811	Ag81	0.932400	0.121340	0.317600
N3771	N377	0.956590	0.017200	0.293410
C14651	C1465	0.974400	0.036800	0.275600
N3781	N378	0.944460	0.071400	0.305540
C14661	C1466	0.966900	0.069300	0.283100
N3791	N379	0.895260	0.122100	0.354740
C14671	C1467	0.886400	0.152700	0.363600
Ag821	Ag82	0.932400	0.621340	0.817600
N3801	N380	0.956590	0.517200	0.793410
C14681	C1468	0.974400	0.536800	0.775600
N3811	N381	0.944460	0.571400	0.805540
C14691	C1469	0.966900	0.569300	0.783100
N3821	N382	0.895260	0.622100	0.854740
C14701	C1470	0.886400	0.652700	0.863600
Ag831	Ag83	0.121340	0.317600	0.932400
N3831	N383	0.017200	0.293410	0.956590
C14711	C1471	0.036800	0.275600	0.974400
N3841	N384	0.071400	0.305540	0.944460
C14721	C1472	0.069300	0.283100	0.966900
N3851	N385	0.122100	0.354740	0.895260
C14731	C1473	0.152700	0.363600	0.886400
Ag841	Ag84	0.121340	0.817600	0.432400
N3861	N386	0.017200	0.793410	0.456590
C14741	C1474	0.036800	0.775600	0.474400
N3871	N387	0.071400	0.805540	0.444460
C14751	C1475	0.069300	0.783100	0.466900
N3881	N388	0.122100	0.854740	0.395260
C14761	C1476	0.152700	0.863600	0.386400
Ag851	Ag85	0.128660	0.817600	0.817600
N3891	N389	0.232800	0.793410	0.793410
C14771	C1477	0.213200	0.775600	0.775600
N3901	N390	0.178600	0.805540	0.805540
C14781	C1478	0.180700	0.783100	0.783100
N3911	N391	0.127900	0.854740	0.854740
C14791	C1479	0.097300	0.863600	0.863600
Ag861	Ag86	0.128660	0.317600	0.317600
N3921	N392	0.232800	0.293410	0.293410
C14801	C1480	0.213200	0.275600	0.275600
N3931	N393	0.178600	0.305540	0.305540
C14811	C1481	0.180700	0.283100	0.283100
N3941	N394	0.127900	0.354740	0.354740
C14821	C1482	0.097300	0.363600	0.363600
Ag871	Ag87	0.628660	0.817600	0.317600
N3951	N395	0.732800	0.793410	0.293410
C14831	C1483	0.713200	0.775600	0.275600
N3961	N396	0.678600	0.805540	0.305540
C14841	C1484	0.680700	0.783100	0.283100
N3971	N397	0.627900	0.854740	0.354740
C14851	C1485	0.597300	0.863600	0.363600
Ag881	Ag88	0.628660	0.317600	0.817600
N3981	N398	0.732800	0.293410	0.793410
C14861	C1486	0.713200	0.275600	0.775600
N3991	N399	0.678600	0.305540	0.805540
C14871	C1487	0.680700	0.283100	0.783100
N4001	N400	0.627900	0.354740	0.854740
C14881	C1488	0.597300	0.363600	0.863600
Ag891	Ag89	0.628660	0.932400	0.432400
N4011	N401	0.732800	0.956590	0.456590
C14891	C1489	0.713200	0.974400	0.474400
N4021	N402	0.678600	0.944460	0.444460
C14901	C1490	0.680700	0.966900	0.466900
N4031	N403	0.627900	0.895260	0.395260
C14911	C1491	0.597300	0.886400	0.386400
Ag901	Ag90	0.128660	0.932400	0.932400
N4041	N404	0.232800	0.956590	0.956590
C14921	C1492	0.213200	0.974400	0.974400
N4051	N405	0.178600	0.944460	0.944460
C14931	C1493	0.180700	0.966900	0.966900
N4061	N406	0.127900	0.895260	0.895260
C14941	C1494	0.097300	0.886400	0.886400
Ag911	Ag91	0.621340	0.432400	0.317600
N4071	N407	0.517200	0.456590	0.293410
C14951	C1495	0.536800	0.474400	0.275600
N4081	N408	0.571400	0.444460	0.305540
C14961	C1496	0.569300	0.466900	0.283100
N4091	N409	0.622100	0.395260	0.354740
C14971	C1497	0.652700	0.386400	0.363600
Ag921	Ag92	0.621340	0.932400	0.817600
N4101	N410	0.517200	0.956590	0.793410
C14981	C1498	0.536800	0.974400	0.775600
N4111	N411	0.571400	0.944460	0.805540
C14991	C1499	0.569300	0.966900	0.783100
N4121	N412	0.622100	0.895260	0.854740
C15001	C1500	0.652700	0.886400	0.863600
Ag931	Ag93	0.817600	0.817600	0.128660
N4131	N413	0.793410	0.793410	0.232800
C15011	C1501	0.775600	0.775600	0.213200
N4141	N414	0.805540	0.805540	0.178600
C15021	C1502	0.783100	0.783100	0.180700
N4151	N415	0.854740	0.854740	0.127900
C15031	C1503	0.863600	0.863600	0.097300
Ag941	Ag94	0.817600	0.317600	0.628660
N4161	N416	0.793410	0.293410	0.732800
C15041	C1504	0.775600	0.275600	0.713200
N4171	N417	0.805540	0.305540	0.678600
C15051	C1505	0.783100	0.283100	0.680700
N4181	N418	0.854740	0.354740	0.627900
C15061	C1506	0.863600	0.363600	0.597300
Ag951	Ag95	0.317600	0.817600	0.628660
N4191	N419	0.293410	0.793410	0.732800
C15071	C1507	0.275600	0.775600	0.713200
N4201	N420	0.305540	0.805540	0.678600
C15081	C1508	0.283100	0.783100	0.680700
N4211	N421	0.354740	0.854740	0.627900
C15091	C1509	0.363600	0.863600	0.597300
Ag961	Ag96	0.317600	0.317600	0.128660
N4221	N422	0.293410	0.293410	0.232800
C15101	C1510	0.275600	0.275600	0.213200
N4231	N423	0.305540	0.305540	0.178600
C15111	C1511	0.283100	0.283100	0.180700
N4241	N424	0.354740	0.354740	0.127900
C15121	C1512	0.363600	0.363600	0.097300
Ag971	Ag97	0.317600	0.932400	0.121340
N4251	N425	0.293410	0.956590	0.017200
C15131	C1513	0.275600	0.974400	0.036800
N4261	N426	0.305540	0.944460	0.071400
C15141	C1514	0.283100	0.966900	0.069300
N4271	N427	0.354740	0.895260	0.122100
C15151	C1515	0.363600	0.886400	0.152700
Ag981	Ag98	0.817600	0.932400	0.621340
N4281	N428	0.793410	0.956590	0.517200
C15161	C1516	0.775600	0.974400	0.536800
N4291	N429	0.805540	0.944460	0.571400
C15171	C1517	0.783100	0.966900	0.569300
N4301	N430	0.854740	0.895260	0.622100
C15181	C1518	0.863600	0.886400	0.652700
Ag991	Ag99	0.432400	0.317600	0.621340
N4311	N431	0.456590	0.293410	0.517200
C15191	C1519	0.474400	0.275600	0.536800
N4321	N432	0.444460	0.305540	0.571400
C15201	C1520	0.466900	0.283100	0.569300
N4331	N433	0.395260	0.354740	0.622100
C15211	C1521	0.386400	0.363600	0.652700
Ag1001	Ag100	0.432400	0.817600	0.121340
N4341	N434	0.456590	0.793410	0.017200
C15221	C1522	0.474400	0.775600	0.036800
N4351	N435	0.444460	0.805540	0.071400
C15231	C1523	0.466900	0.783100	0.069300
N4361	N436	0.395260	0.854740	0.122100
C15241	C1524	0.386400	0.863600	0.152700
Ag1011	Ag101	0.932400	0.432400	0.628660
N4371	N437	0.956590	0.456590	0.732800
C15251	C1525	0.974400	0.474400	0.713200
N4381	N438	0.944460	0.444460	0.678600
C15261	C1526	0.966900	0.466900	0.680700
N4391	N439	0.895260	0.395260	0.627900
C15271	C1527	0.886400	0.386400	0.597300
Ag1021	Ag102	0.932400	0.932400	0.128660
N4401	N440	0.956590	0.956590	0.232800
C15281	C1528	0.974400	0.974400	0.213200
N4411	N441	0.944460	0.944460	0.178600
C15291	C1529	0.966900	0.966900	0.180700
N4421	N442	0.895260	0.895260	0.127900
C15301	C1530	0.886400	0.886400	0.097300
Ag1031	Ag103	0.628660	0.432400	0.932400
N4431	N443	0.732800	0.456590	0.956590
C15311	C1531	0.713200	0.474400	0.974400
N4441	N444	0.678600	0.444460	0.944460
C15321	C1532	0.680700	0.466900	0.966900
N4451	N445	0.627900	0.395260	0.895260
C15331	C1533	0.597300	0.386400	0.886400
Ag1041	Ag104	0.128660	0.432400	0.432400
N4461	N446	0.232800	0.456590	0.456590
C15341	C1534	0.213200	0.474400	0.474400
N4471	N447	0.178600	0.444460	0.444460
C15351	C1535	0.180700	0.466900	0.466900
N4481	N448	0.127900	0.395260	0.395260
C15361	C1536	0.097300	0.386400	0.386400
Ag1051	Ag105	0.621340	0.317600	0.432400
N4491	N449	0.517200	0.293410	0.456590
C15371	C1537	0.536800	0.275600	0.474400
N4501	N450	0.571400	0.305540	0.444460
C15381	C1538	0.569300	0.283100	0.466900
N4511	N451	0.622100	0.354740	0.395260
C15391	C1539	0.652700	0.363600	0.386400
Ag1061	Ag106	0.621340	0.817600	0.932400
N4521	N452	0.517200	0.793410	0.956590
C15401	C1540	0.536800	0.775600	0.974400
N4531	N453	0.571400	0.805540	0.944460
C15411	C1541	0.569300	0.783100	0.966900
N4541	N454	0.622100	0.854740	0.895260
C15421	C1542	0.652700	0.863600	0.886400
Ag1071	Ag107	0.121340	0.932400	0.317600
N4551	N455	0.017200	0.956590	0.293410
C15431	C1543	0.036800	0.974400	0.275600
N4561	N456	0.071400	0.944460	0.305540
C15441	C1544	0.069300	0.966900	0.283100
N4571	N457	0.122100	0.895260	0.354740
C15451	C1545	0.152700	0.886400	0.363600
Ag1081	Ag108	0.121340	0.432400	0.817600
N4581	N458	0.017200	0.456590	0.793410
C15461	C1546	0.036800	0.474400	0.775600
N4591	N459	0.071400	0.444460	0.805540
C15471	C1547	0.069300	0.466900	0.783100
N4601	N460	0.122100	0.395260	0.854740
C15481	C1548	0.152700	0.386400	0.863600
Ag1091	Ag109	0.932400	0.628660	0.432400
N4611	N461	0.956590	0.732800	0.456590
C15491	C1549	0.974400	0.713200	0.474400
N4621	N462	0.944460	0.678600	0.444460
C15501	C1550	0.966900	0.680700	0.466900
N4631	N463	0.895260	0.627900	0.395260
C15511	C1551	0.886400	0.597300	0.386400
Ag1101	Ag110	0.432400	0.621340	0.317600
N4641	N464	0.456590	0.517200	0.293410
C15521	C1552	0.474400	0.536800	0.275600
N4651	N465	0.444460	0.571400	0.305540
C15531	C1553	0.466900	0.569300	0.283100
N4661	N466	0.395260	0.622100	0.354740
C15541	C1554	0.386400	0.652700	0.363600
Ag1111	Ag111	0.432400	0.121340	0.817600
N4671	N467	0.456590	0.017200	0.793410
C15551	C1555	0.474400	0.036800	0.775600
N4681	N468	0.444460	0.071400	0.805540
C15561	C1556	0.466900	0.069300	0.783100
N4691	N469	0.395260	0.122100	0.854740
C15571	C1557	0.386400	0.152700	0.863600
Ag1121	Ag112	0.317600	0.121340	0.932400
N4701	N470	0.293410	0.017200	0.956590
C15581	C1558	0.275600	0.036800	0.974400
N4711	N471	0.305540	0.071400	0.944460
C15591	C1559	0.283100	0.069300	0.966900
N4721	N472	0.354740	0.122100	0.895260
C15601	C1560	0.363600	0.152700	0.886400
Ag1131	Ag113	0.817600	0.121340	0.432400
N4731	N473	0.793410	0.017200	0.456590
C15611	C1561	0.775600	0.036800	0.474400
N4741	N474	0.805540	0.071400	0.444460
C15621	C1562	0.783100	0.069300	0.466900
N4751	N475	0.854740	0.122100	0.395260
C15631	C1563	0.863600	0.152700	0.386400
Ag1141	Ag114	0.432400	0.932400	0.628660
N4761	N476	0.456590	0.956590	0.732800
C15641	C1564	0.474400	0.974400	0.713200
N4771	N477	0.444460	0.944460	0.678600
C15651	C1565	0.466900	0.966900	0.680700
N4781	N478	0.395260	0.895260	0.627900
C15661	C1566	0.386400	0.886400	0.597300
Ag1151	Ag115	0.432400	0.432400	0.128660
N4791	N479	0.456590	0.456590	0.232800
C15671	C1567	0.474400	0.474400	0.213200
N4801	N480	0.444460	0.444460	0.178600
C15681	C1568	0.466900	0.466900	0.180700
N4811	N481	0.395260	0.395260	0.127900
C15691	C1569	0.386400	0.386400	0.097300
Ag1161	Ag116	0.317600	0.432400	0.621340
N4821	N482	0.293410	0.456590	0.517200
C15701	C1570	0.275600	0.474400	0.536800
N4831	N483	0.305540	0.444460	0.571400
C15711	C1571	0.283100	0.466900	0.569300
N4841	N484	0.354740	0.395260	0.622100
C15721	C1572	0.363600	0.386400	0.652700
Ag1171	Ag117	0.817600	0.432400	0.121340
N4851	N485	0.793410	0.456590	0.017200
C15731	C1573	0.775600	0.474400	0.036800
N4861	N486	0.805540	0.444460	0.071400
C15741	C1574	0.783100	0.466900	0.069300
N4871	N487	0.854740	0.395260	0.122100
C15751	C1575	0.863600	0.386400	0.152700
Ag1181	Ag118	0.932400	0.317600	0.121340
N4881	N488	0.956590	0.293410	0.017200
C15761	C1576	0.974400	0.275600	0.036800
N4891	N489	0.944460	0.305540	0.071400
C15771	C1577	0.966900	0.283100	0.069300
N4901	N490	0.895260	0.354740	0.122100
C15781	C1578	0.886400	0.363600	0.152700
Ag1191	Ag119	0.932400	0.817600	0.621340
N4911	N491	0.956590	0.793410	0.517200
C15791	C1579	0.974400	0.775600	0.536800
N4921	N492	0.944460	0.805540	0.571400
C15801	C1580	0.966900	0.783100	0.569300
N4931	N493	0.895260	0.854740	0.622100
C15811	C1581	0.886400	0.863600	0.652700
Ag1201	Ag120	0.682400	0.378660	0.567600
N4941	N494	0.706590	0.482800	0.543410
C15821	C1582	0.724400	0.463200	0.525600
N4951	N495	0.694460	0.428600	0.555540
C15831	C1583	0.716900	0.430700	0.533100
N4961	N496	0.645260	0.377900	0.604740
C15841	C1584	0.636400	0.347300	0.613600
Ag1211	Ag121	0.182400	0.378660	0.067600
N4971	N497	0.206590	0.482800	0.043410
C15851	C1585	0.224400	0.463200	0.025600
N4981	N498	0.194460	0.428600	0.055540
C15861	C1586	0.216900	0.430700	0.033100
N4991	N499	0.145260	0.377900	0.104740
C15871	C1587	0.136400	0.347300	0.113600
Ag1221	Ag122	0.567600	0.371340	0.067600
N5001	N500	0.543410	0.267200	0.043410
C15881	C1588	0.525600	0.286800	0.025600
N5011	N501	0.555540	0.321400	0.055540
C15891	C1589	0.533100	0.319300	0.033100
N5021	N502	0.604740	0.372100	0.104740
C15901	C1590	0.613600	0.402700	0.113600
Ag1231	Ag123	0.067600	0.878660	0.682400
N5031	N503	0.043410	0.982800	0.706590
C15911	C1591	0.025600	0.963200	0.724400
N5041	N504	0.055540	0.928600	0.694460
C15921	C1592	0.033100	0.930700	0.716900
N5051	N505	0.104740	0.877900	0.645260
C15931	C1593	0.113600	0.847300	0.636400
Ag1241	Ag124	0.067600	0.378660	0.182400
N5061	N506	0.043410	0.482800	0.206590
C15941	C1594	0.025600	0.463200	0.224400
N5071	N507	0.055540	0.428600	0.194460
C15951	C1595	0.033100	0.430700	0.216900
N5081	N508	0.104740	0.377900	0.145260
C15961	C1596	0.113600	0.347300	0.136400
Ag1251	Ag125	0.878660	0.682400	0.067600
N5091	N509	0.982800	0.706590	0.043410
C15971	C1597	0.963200	0.724400	0.025600
N5101	N510	0.928600	0.694460	0.055540
C15981	C1598	0.930700	0.716900	0.033100
N5111	N511	0.877900	0.645260	0.104740
C15991	C1599	0.847300	0.636400	0.113600
Ag1261	Ag126	0.878660	0.182400	0.567600
N5121	N512	0.982800	0.206590	0.543410
C16001	C1600	0.963200	0.224400	0.525600
N5131	N513	0.928600	0.194460	0.555540
C16011	C1601	0.930700	0.216900	0.533100
N5141	N514	0.877900	0.145260	0.604740
C16021	C1602	0.847300	0.136400	0.613600
Ag1271	Ag127	0.371340	0.067600	0.567600
N5151	N515	0.267200	0.043410	0.543410
C16031	C1603	0.286800	0.025600	0.525600
N5161	N516	0.321400	0.055540	0.555540
C16041	C1604	0.319300	0.033100	0.533100
N5171	N517	0.372100	0.104740	0.604740
C16051	C1605	0.402700	0.113600	0.613600
Ag1281	Ag128	0.871340	0.067600	0.067600
N5181	N518	0.767200	0.043410	0.043410
C16061	C1606	0.786800	0.025600	0.025600
N5191	N519	0.821400	0.055540	0.055540
C16071	C1607	0.819300	0.033100	0.033100
N5201	N520	0.872100	0.104740	0.104740
C16081	C1608	0.902700	0.113600	0.113600
Ag1291	Ag129	0.378660	0.567600	0.682400
N5211	N521	0.482800	0.543410	0.706590
C16091	C1609	0.463200	0.525600	0.724400
N5221	N522	0.428600	0.555540	0.694460
C16101	C1610	0.430700	0.533100	0.716900
N5231	N523	0.377900	0.604740	0.645260
C16111	C1611	0.347300	0.613600	0.636400
Ag1301	Ag130	0.378660	0.067600	0.182400
N5241	N524	0.482800	0.043410	0.206590
C16121	C1612	0.463200	0.025600	0.224400
N5251	N525	0.428600	0.055540	0.194460
C16131	C1613	0.430700	0.033100	0.216900
N5261	N526	0.377900	0.104740	0.145260
C16141	C1614	0.347300	0.113600	0.136400
Ag1311	Ag131	0.682400	0.067600	0.878660
N5271	N527	0.706590	0.043410	0.982800
C16151	C1615	0.724400	0.025600	0.963200
N5281	N528	0.694460	0.055540	0.928600
C16161	C1616	0.716900	0.033100	0.930700
N5291	N529	0.645260	0.104740	0.877900
C16171	C1617	0.636400	0.113600	0.847300
Ag1321	Ag132	0.182400	0.067600	0.378660
N5301	N530	0.206590	0.043410	0.482800
C16181	C1618	0.224400	0.025600	0.463200
N5311	N531	0.194460	0.055540	0.428600
C16191	C1619	0.216900	0.033100	0.430700
N5321	N532	0.145260	0.104740	0.377900
C16201	C1620	0.136400	0.113600	0.347300
Ag1331	Ag133	0.567600	0.682400	0.378660
N5331	N533	0.543410	0.706590	0.482800
C16211	C1621	0.525600	0.724400	0.463200
N5341	N534	0.555540	0.694460	0.428600
C16221	C1622	0.533100	0.716900	0.430700
N5351	N535	0.604740	0.645260	0.377900
C16231	C1623	0.613600	0.636400	0.347300
Ag1341	Ag134	0.567600	0.182400	0.878660
N5361	N536	0.543410	0.206590	0.982800
C16241	C1624	0.525600	0.224400	0.963200
N5371	N537	0.555540	0.194460	0.928600
C16251	C1625	0.533100	0.216900	0.930700
N5381	N538	0.604740	0.145260	0.877900
C16261	C1626	0.613600	0.136400	0.847300
Ag1351	Ag135	0.067600	0.567600	0.371340
N5391	N539	0.043410	0.543410	0.267200
C16271	C1627	0.025600	0.525600	0.286800
N5401	N540	0.055540	0.555540	0.321400
C16281	C1628	0.033100	0.533100	0.319300
N5411	N541	0.104740	0.604740	0.372100
C16291	C1629	0.113600	0.613600	0.402700
Ag1361	Ag136	0.067600	0.067600	0.871340
N5421	N542	0.043410	0.043410	0.767200
C16301	C1630	0.025600	0.025600	0.786800
N5431	N543	0.055540	0.055540	0.821400
C16311	C1631	0.033100	0.033100	0.819300
N5441	N544	0.104740	0.104740	0.872100
C16321	C1632	0.113600	0.113600	0.902700
