data_YOZNAE_clean_PM
_symmetry_space_group_name_H-M	'P1'
_cell_length_a	26.304800
_cell_length_b	26.304800
_cell_length_c	26.304800
_cell_angle_alpha	90.000000
_cell_angle_beta	90.000000
_cell_angle_gamma	90.000000
_symmetry_Int_Tables_number 1

loop_
_symmetry_equiv_pos_as_xyz
'x,y,z'

loop_
_atom_site_label
_atom_site_type_symbol
_atom_site_fract_x
_atom_site_fract_y
_atom_site_fract_z
O11	O1	0.243510	0.316600	0.052360
O21	O2	0.243510	0.816600	0.552360
O31	O3	0.743510	0.316600	0.552360
O41	O4	0.743510	0.816600	0.052360
O51	O5	0.756490	0.683400	0.052360
O61	O6	0.756490	0.183400	0.552360
O71	O7	0.256490	0.683400	0.552360
O81	O8	0.256490	0.183400	0.052360
O91	O9	0.756490	0.316600	0.947640
O101	O10	0.756490	0.816600	0.447640
O111	O11	0.256490	0.316600	0.447640
O121	O12	0.256490	0.816600	0.947640
O131	O13	0.243510	0.683400	0.947640
O141	O14	0.243510	0.183400	0.447640
O151	O15	0.743510	0.683400	0.447640
O161	O16	0.743510	0.183400	0.947640
O171	O17	0.052360	0.243510	0.316600
O181	O18	0.052360	0.743510	0.816600
O191	O19	0.552360	0.243510	0.816600
O201	O20	0.552360	0.743510	0.316600
O211	O21	0.052360	0.756490	0.683400
O221	O22	0.052360	0.256490	0.183400
O231	O23	0.552360	0.756490	0.183400
O241	O24	0.552360	0.256490	0.683400
O251	O25	0.947640	0.756490	0.316600
O261	O26	0.947640	0.256490	0.816600
O271	O27	0.447640	0.756490	0.816600
O281	O28	0.447640	0.256490	0.316600
O291	O29	0.947640	0.243510	0.683400
O301	O30	0.947640	0.743510	0.183400
O311	O31	0.447640	0.243510	0.183400
O321	O32	0.447640	0.743510	0.683400
O331	O33	0.316600	0.052360	0.243510
O341	O34	0.316600	0.552360	0.743510
O351	O35	0.816600	0.052360	0.743510
O361	O36	0.816600	0.552360	0.243510
O371	O37	0.683400	0.052360	0.756490
O381	O38	0.683400	0.552360	0.256490
O391	O39	0.183400	0.052360	0.256490
O401	O40	0.183400	0.552360	0.756490
O411	O41	0.316600	0.947640	0.756490
O421	O42	0.316600	0.447640	0.256490
O431	O43	0.816600	0.947640	0.256490
O441	O44	0.816600	0.447640	0.756490
O451	O45	0.683400	0.947640	0.243510
O461	O46	0.683400	0.447640	0.743510
O471	O47	0.183400	0.947640	0.743510
O481	O48	0.183400	0.447640	0.243510
O491	O49	0.316600	0.243510	0.947640
O501	O50	0.316600	0.743510	0.447640
O511	O51	0.816600	0.243510	0.447640
O521	O52	0.816600	0.743510	0.947640
O531	O53	0.683400	0.756490	0.947640
O541	O54	0.683400	0.256490	0.447640
O551	O55	0.183400	0.756490	0.447640
O561	O56	0.183400	0.256490	0.947640
O571	O57	0.316600	0.756490	0.052360
O581	O58	0.316600	0.256490	0.552360
O591	O59	0.816600	0.756490	0.552360
O601	O60	0.816600	0.256490	0.052360
O611	O61	0.683400	0.243510	0.052360
O621	O62	0.683400	0.743510	0.552360
O631	O63	0.183400	0.243510	0.552360
O641	O64	0.183400	0.743510	0.052360
O651	O65	0.243510	0.052360	0.683400
O661	O66	0.243510	0.552360	0.183400
O671	O67	0.743510	0.052360	0.183400
O681	O68	0.743510	0.552360	0.683400
O691	O69	0.756490	0.052360	0.316600
O701	O70	0.756490	0.552360	0.816600
O711	O71	0.256490	0.052360	0.816600
O721	O72	0.256490	0.552360	0.316600
O731	O73	0.756490	0.947640	0.683400
O741	O74	0.756490	0.447640	0.183400
O751	O75	0.256490	0.947640	0.183400
O761	O76	0.256490	0.447640	0.683400
O771	O77	0.243510	0.947640	0.316600
O781	O78	0.243510	0.447640	0.816600
O791	O79	0.743510	0.947640	0.816600
O801	O80	0.743510	0.447640	0.316600
O811	O81	0.052360	0.316600	0.756490
O821	O82	0.052360	0.816600	0.256490
O831	O83	0.552360	0.316600	0.256490
O841	O84	0.552360	0.816600	0.756490
O851	O85	0.052360	0.683400	0.243510
O861	O86	0.052360	0.183400	0.743510
O871	O87	0.552360	0.683400	0.743510
O881	O88	0.552360	0.183400	0.243510
O891	O89	0.947640	0.316600	0.243510
O901	O90	0.947640	0.816600	0.743510
O911	O91	0.447640	0.316600	0.743510
O921	O92	0.447640	0.816600	0.243510
O931	O93	0.947640	0.683400	0.756490
O941	O94	0.947640	0.183400	0.256490
O951	O95	0.447640	0.683400	0.256490
O961	O96	0.447640	0.183400	0.756490
O971	O97	0.756490	0.683400	0.947640
O981	O98	0.756490	0.183400	0.447640
O991	O99	0.256490	0.683400	0.447640
O1001	O100	0.256490	0.183400	0.947640
O1011	O101	0.243510	0.316600	0.947640
O1021	O102	0.243510	0.816600	0.447640
O1031	O103	0.743510	0.316600	0.447640
O1041	O104	0.743510	0.816600	0.947640
O1051	O105	0.243510	0.683400	0.052360
O1061	O106	0.243510	0.183400	0.552360
O1071	O107	0.743510	0.683400	0.552360
O1081	O108	0.743510	0.183400	0.052360
O1091	O109	0.756490	0.316600	0.052360
O1101	O110	0.756490	0.816600	0.552360
O1111	O111	0.256490	0.316600	0.552360
O1121	O112	0.256490	0.816600	0.052360
O1131	O113	0.947640	0.756490	0.683400
O1141	O114	0.947640	0.256490	0.183400
O1151	O115	0.447640	0.756490	0.183400
O1161	O116	0.447640	0.256490	0.683400
O1171	O117	0.947640	0.243510	0.316600
O1181	O118	0.947640	0.743510	0.816600
O1191	O119	0.447640	0.243510	0.816600
O1201	O120	0.447640	0.743510	0.316600
O1211	O121	0.052360	0.243510	0.683400
O1221	O122	0.052360	0.743510	0.183400
O1231	O123	0.552360	0.243510	0.183400
O1241	O124	0.552360	0.743510	0.683400
O1251	O125	0.052360	0.756490	0.316600
O1261	O126	0.052360	0.256490	0.816600
O1271	O127	0.552360	0.756490	0.816600
O1281	O128	0.552360	0.256490	0.316600
O1291	O129	0.683400	0.947640	0.756490
O1301	O130	0.683400	0.447640	0.256490
O1311	O131	0.183400	0.947640	0.256490
O1321	O132	0.183400	0.447640	0.756490
O1331	O133	0.316600	0.947640	0.243510
O1341	O134	0.316600	0.447640	0.743510
O1351	O135	0.816600	0.947640	0.743510
O1361	O136	0.816600	0.447640	0.243510
O1371	O137	0.683400	0.052360	0.243510
O1381	O138	0.683400	0.552360	0.743510
O1391	O139	0.183400	0.052360	0.743510
O1401	O140	0.183400	0.552360	0.243510
O1411	O141	0.316600	0.052360	0.756490
O1421	O142	0.316600	0.552360	0.256490
O1431	O143	0.816600	0.052360	0.256490
O1441	O144	0.816600	0.552360	0.756490
O1451	O145	0.683400	0.756490	0.052360
O1461	O146	0.683400	0.256490	0.552360
O1471	O147	0.183400	0.756490	0.552360
O1481	O148	0.183400	0.256490	0.052360
O1491	O149	0.316600	0.243510	0.052360
O1501	O150	0.316600	0.743510	0.552360
O1511	O151	0.816600	0.243510	0.552360
O1521	O152	0.816600	0.743510	0.052360
O1531	O153	0.683400	0.243510	0.947640
O1541	O154	0.683400	0.743510	0.447640
O1551	O155	0.183400	0.243510	0.447640
O1561	O156	0.183400	0.743510	0.947640
O1571	O157	0.316600	0.756490	0.947640
O1581	O158	0.316600	0.256490	0.447640
O1591	O159	0.816600	0.756490	0.447640
O1601	O160	0.816600	0.256490	0.947640
O1611	O161	0.756490	0.947640	0.316600
O1621	O162	0.756490	0.447640	0.816600
O1631	O163	0.256490	0.947640	0.816600
O1641	O164	0.256490	0.447640	0.316600
O1651	O165	0.243510	0.947640	0.683400
O1661	O166	0.243510	0.447640	0.183400
O1671	O167	0.743510	0.947640	0.183400
O1681	O168	0.743510	0.447640	0.683400
O1691	O169	0.243510	0.052360	0.316600
O1701	O170	0.243510	0.552360	0.816600
O1711	O171	0.743510	0.052360	0.816600
O1721	O172	0.743510	0.552360	0.316600
O1731	O173	0.756490	0.052360	0.683400
O1741	O174	0.756490	0.552360	0.183400
O1751	O175	0.256490	0.052360	0.183400
O1761	O176	0.256490	0.552360	0.683400
O1771	O177	0.947640	0.683400	0.243510
O1781	O178	0.947640	0.183400	0.743510
O1791	O179	0.447640	0.683400	0.743510
O1801	O180	0.447640	0.183400	0.243510
O1811	O181	0.947640	0.316600	0.756490
O1821	O182	0.947640	0.816600	0.256490
O1831	O183	0.447640	0.316600	0.256490
O1841	O184	0.447640	0.816600	0.756490
O1851	O185	0.052360	0.683400	0.756490
O1861	O186	0.052360	0.183400	0.256490
O1871	O187	0.552360	0.683400	0.256490
O1881	O188	0.552360	0.183400	0.756490
O1891	O189	0.052360	0.316600	0.243510
O1901	O190	0.052360	0.816600	0.743510
O1911	O191	0.552360	0.316600	0.743510
O1921	O192	0.552360	0.816600	0.243510
Cu11	Cu1	0.283890	0.283890	0.000000
Cu21	Cu2	0.283890	0.783890	0.500000
Cu31	Cu3	0.783890	0.283890	0.500000
Cu41	Cu4	0.783890	0.783890	0.000000
Cu51	Cu5	0.716110	0.716110	0.000000
Cu61	Cu6	0.716110	0.216110	0.500000
Cu71	Cu7	0.216110	0.716110	0.500000
Cu81	Cu8	0.216110	0.216110	0.000000
Cu91	Cu9	0.716110	0.283890	0.000000
Cu101	Cu10	0.716110	0.783890	0.500000
Cu111	Cu11	0.216110	0.283890	0.500000
Cu121	Cu12	0.216110	0.783890	0.000000
Cu131	Cu13	0.283890	0.716110	0.000000
Cu141	Cu14	0.283890	0.216110	0.500000
Cu151	Cu15	0.783890	0.716110	0.500000
Cu161	Cu16	0.783890	0.216110	0.000000
Cu171	Cu17	0.000000	0.283890	0.283890
Cu181	Cu18	0.000000	0.783890	0.783890
Cu191	Cu19	0.500000	0.283890	0.783890
Cu201	Cu20	0.500000	0.783890	0.283890
Cu211	Cu21	0.000000	0.716110	0.716110
Cu221	Cu22	0.000000	0.216110	0.216110
Cu231	Cu23	0.500000	0.716110	0.216110
Cu241	Cu24	0.500000	0.216110	0.716110
Cu251	Cu25	0.000000	0.716110	0.283890
Cu261	Cu26	0.000000	0.216110	0.783890
Cu271	Cu27	0.500000	0.716110	0.783890
Cu281	Cu28	0.500000	0.216110	0.283890
Cu291	Cu29	0.000000	0.283890	0.716110
Cu301	Cu30	0.000000	0.783890	0.216110
Cu311	Cu31	0.500000	0.283890	0.216110
Cu321	Cu32	0.500000	0.783890	0.716110
Cu331	Cu33	0.283890	0.000000	0.283890
Cu341	Cu34	0.283890	0.500000	0.783890
Cu351	Cu35	0.783890	0.000000	0.783890
Cu361	Cu36	0.783890	0.500000	0.283890
Cu371	Cu37	0.716110	0.000000	0.716110
Cu381	Cu38	0.716110	0.500000	0.216110
Cu391	Cu39	0.216110	0.000000	0.216110
Cu401	Cu40	0.216110	0.500000	0.716110
Cu411	Cu41	0.283890	0.000000	0.716110
Cu421	Cu42	0.283890	0.500000	0.216110
Cu431	Cu43	0.783890	0.000000	0.216110
Cu441	Cu44	0.783890	0.500000	0.716110
Cu451	Cu45	0.716110	0.000000	0.283890
Cu461	Cu46	0.716110	0.500000	0.783890
Cu471	Cu47	0.216110	0.000000	0.783890
Cu481	Cu48	0.216110	0.500000	0.283890
C11	C1	0.178510	0.321490	0.113680
C21	C2	0.203560	0.296440	0.069120
C31	C3	0.178510	0.821490	0.613680
C41	C4	0.203560	0.796440	0.569120
C51	C5	0.821490	0.678510	0.113680
C61	C6	0.796440	0.703560	0.069120
C71	C7	0.821490	0.178510	0.613680
C81	C8	0.796440	0.203560	0.569120
C91	C9	0.321490	0.178510	0.113680
C101	C10	0.296440	0.203560	0.069120
C111	C11	0.821490	0.321490	0.886320
C121	C12	0.796440	0.296440	0.930880
C131	C13	0.821490	0.821490	0.386320
C141	C14	0.796440	0.796440	0.430880
C151	C15	0.321490	0.321490	0.386320
C161	C16	0.296440	0.296440	0.430880
C171	C17	0.178510	0.678510	0.886320
C181	C18	0.203560	0.703560	0.930880
C191	C19	0.178510	0.178510	0.386320
C201	C20	0.203560	0.203560	0.430880
C211	C21	0.113680	0.178510	0.321490
C221	C22	0.069120	0.203560	0.296440
C231	C23	0.613680	0.178510	0.821490
C241	C24	0.569120	0.203560	0.796440
C251	C25	0.113680	0.821490	0.678510
C261	C26	0.069120	0.796440	0.703560
C271	C27	0.113680	0.321490	0.178510
C281	C28	0.069120	0.296440	0.203560
C291	C29	0.613680	0.821490	0.178510
C301	C30	0.569120	0.796440	0.203560
C311	C31	0.886320	0.821490	0.321490
C321	C32	0.930880	0.796440	0.296440
C331	C33	0.386320	0.821490	0.821490
C341	C34	0.430880	0.796440	0.796440
C351	C35	0.386320	0.321490	0.321490
C361	C36	0.430880	0.296440	0.296440
C371	C37	0.886320	0.178510	0.678510
C381	C38	0.930880	0.203560	0.703560
C391	C39	0.386320	0.178510	0.178510
C401	C40	0.430880	0.203560	0.203560
C411	C41	0.321490	0.113680	0.178510
C421	C42	0.296440	0.069120	0.203560
C431	C43	0.321490	0.613680	0.678510
C441	C44	0.296440	0.569120	0.703560
C451	C45	0.678510	0.113680	0.821490
C461	C46	0.703560	0.069120	0.796440
C471	C47	0.678510	0.613680	0.321490
C481	C48	0.703560	0.569120	0.296440
C491	C49	0.178510	0.113680	0.321490
C501	C50	0.203560	0.069120	0.296440
C511	C51	0.321490	0.886320	0.821490
C521	C52	0.296440	0.930880	0.796440
C531	C53	0.321490	0.386320	0.321490
C541	C54	0.296440	0.430880	0.296440
C551	C55	0.678510	0.886320	0.178510
C561	C56	0.703560	0.930880	0.203560
C571	C57	0.678510	0.386320	0.678510
C581	C58	0.703560	0.430880	0.703560
C591	C59	0.178510	0.386320	0.178510
C601	C60	0.203560	0.430880	0.203560
C611	C61	0.321490	0.178510	0.886320
C621	C62	0.296440	0.203560	0.930880
C631	C63	0.321490	0.678510	0.386320
C641	C64	0.296440	0.703560	0.430880
C651	C65	0.678510	0.821490	0.886320
C661	C66	0.703560	0.796440	0.930880
C671	C67	0.678510	0.321490	0.386320
C681	C68	0.703560	0.296440	0.430880
C691	C69	0.178510	0.321490	0.886320
C701	C70	0.203560	0.296440	0.930880
C711	C71	0.321490	0.821490	0.113680
C721	C72	0.296440	0.796440	0.069120
C731	C73	0.321490	0.321490	0.613680
C741	C74	0.296440	0.296440	0.569120
C751	C75	0.678510	0.178510	0.113680
C761	C76	0.703560	0.203560	0.069120
C771	C77	0.678510	0.678510	0.613680
C781	C78	0.703560	0.703560	0.569120
C791	C79	0.178510	0.178510	0.613680
C801	C80	0.203560	0.203560	0.569120
C811	C81	0.178510	0.113680	0.678510
C821	C82	0.203560	0.069120	0.703560
C831	C83	0.178510	0.613680	0.178510
C841	C84	0.203560	0.569120	0.203560
C851	C85	0.821490	0.113680	0.321490
C861	C86	0.796440	0.069120	0.296440
C871	C87	0.821490	0.613680	0.821490
C881	C88	0.796440	0.569120	0.796440
C891	C89	0.321490	0.613680	0.321490
C901	C90	0.296440	0.569120	0.296440
C911	C91	0.821490	0.886320	0.678510
C921	C92	0.796440	0.930880	0.703560
C931	C93	0.821490	0.386320	0.178510
C941	C94	0.796440	0.430880	0.203560
C951	C95	0.321490	0.886320	0.178510
C961	C96	0.296440	0.930880	0.203560
C971	C97	0.178510	0.886320	0.321490
C981	C98	0.203560	0.930880	0.296440
C991	C99	0.178510	0.386320	0.821490
C1001	C100	0.203560	0.430880	0.796440
C1011	C101	0.113680	0.321490	0.821490
C1021	C102	0.069120	0.296440	0.796440
C1031	C103	0.613680	0.321490	0.321490
C1041	C104	0.569120	0.296440	0.296440
C1051	C105	0.113680	0.678510	0.178510
C1061	C106	0.069120	0.703560	0.203560
C1071	C107	0.613680	0.678510	0.678510
C1081	C108	0.569120	0.703560	0.703560
C1091	C109	0.613680	0.178510	0.178510
C1101	C110	0.569120	0.203560	0.203560
C1111	C111	0.886320	0.321490	0.178510
C1121	C112	0.930880	0.296440	0.203560
C1131	C113	0.386320	0.321490	0.678510
C1141	C114	0.430880	0.296440	0.703560
C1151	C115	0.886320	0.678510	0.821490
C1161	C116	0.930880	0.703560	0.796440
C1171	C117	0.886320	0.178510	0.321490
C1181	C118	0.930880	0.203560	0.296440
C1191	C119	0.386320	0.678510	0.321490
C1201	C120	0.430880	0.703560	0.296440
C1211	C121	0.821490	0.678510	0.886320
C1221	C122	0.796440	0.703560	0.930880
C1231	C123	0.821490	0.178510	0.386320
C1241	C124	0.796440	0.203560	0.430880
C1251	C125	0.178510	0.821490	0.386320
C1261	C126	0.203560	0.796440	0.430880
C1271	C127	0.178510	0.678510	0.113680
C1281	C128	0.203560	0.703560	0.069120
C1291	C129	0.821490	0.321490	0.113680
C1301	C130	0.796440	0.296440	0.069120
C1311	C131	0.821490	0.821490	0.613680
C1321	C132	0.796440	0.796440	0.569120
C1331	C133	0.886320	0.821490	0.678510
C1341	C134	0.930880	0.796440	0.703560
C1351	C135	0.386320	0.821490	0.178510
C1361	C136	0.430880	0.796440	0.203560
C1371	C137	0.386320	0.178510	0.821490
C1381	C138	0.430880	0.203560	0.796440
C1391	C139	0.113680	0.178510	0.678510
C1401	C140	0.069120	0.203560	0.703560
C1411	C141	0.113680	0.821490	0.321490
C1421	C142	0.069120	0.796440	0.296440
C1431	C143	0.613680	0.821490	0.821490
C1441	C144	0.569120	0.796440	0.796440
C1451	C145	0.678510	0.886320	0.821490
C1461	C146	0.703560	0.930880	0.796440
C1471	C147	0.678510	0.386320	0.321490
C1481	C148	0.703560	0.430880	0.296440
C1491	C149	0.321490	0.386320	0.678510
C1501	C150	0.296440	0.430880	0.703560
C1511	C151	0.678510	0.113680	0.178510
C1521	C152	0.703560	0.069120	0.203560
C1531	C153	0.678510	0.613680	0.678510
C1541	C154	0.703560	0.569120	0.703560
C1551	C155	0.321490	0.113680	0.821490
C1561	C156	0.296440	0.069120	0.796440
C1571	C157	0.678510	0.821490	0.113680
C1581	C158	0.703560	0.796440	0.069120
C1591	C159	0.678510	0.321490	0.613680
C1601	C160	0.703560	0.296440	0.569120
C1611	C161	0.321490	0.678510	0.613680
C1621	C162	0.296440	0.703560	0.569120
C1631	C163	0.678510	0.178510	0.886320
C1641	C164	0.703560	0.203560	0.930880
C1651	C165	0.678510	0.678510	0.386320
C1661	C166	0.703560	0.703560	0.430880
C1671	C167	0.321490	0.821490	0.886320
C1681	C168	0.296440	0.796440	0.930880
C1691	C169	0.821490	0.886320	0.321490
C1701	C170	0.796440	0.930880	0.296440
C1711	C171	0.821490	0.386320	0.821490
C1721	C172	0.796440	0.430880	0.796440
C1731	C173	0.178510	0.886320	0.678510
C1741	C174	0.203560	0.930880	0.703560
C1751	C175	0.178510	0.613680	0.821490
C1761	C176	0.203560	0.569120	0.796440
C1771	C177	0.821490	0.113680	0.678510
C1781	C178	0.796440	0.069120	0.703560
C1791	C179	0.821490	0.613680	0.178510
C1801	C180	0.796440	0.569120	0.203560
C1811	C181	0.886320	0.678510	0.178510
C1821	C182	0.930880	0.703560	0.203560
C1831	C183	0.386320	0.678510	0.678510
C1841	C184	0.430880	0.703560	0.703560
C1851	C185	0.886320	0.321490	0.821490
C1861	C186	0.930880	0.296440	0.796440
C1871	C187	0.113680	0.678510	0.821490
C1881	C188	0.069120	0.703560	0.796440
C1891	C189	0.613680	0.678510	0.321490
C1901	C190	0.569120	0.703560	0.296440
C1911	C191	0.613680	0.321490	0.678510
C1921	C192	0.569120	0.296440	0.703560
C1931	C193	0.135280	0.300060	0.135280
H11	H1	0.120800	0.271300	0.120800
C1941	C194	0.135280	0.800060	0.635280
H21	H2	0.120800	0.771300	0.620800
C1951	C195	0.635280	0.300060	0.635280
H31	H3	0.620800	0.271300	0.620800
C1961	C196	0.635280	0.800060	0.135280
H41	H4	0.620800	0.771300	0.120800
C1971	C197	0.864720	0.699940	0.135280
H51	H5	0.879200	0.728700	0.120800
C1981	C198	0.864720	0.199940	0.635280
H61	H6	0.879200	0.228700	0.620800
C1991	C199	0.364720	0.699940	0.635280
H71	H7	0.379200	0.728700	0.620800
C2001	C200	0.364720	0.199940	0.135280
H81	H8	0.379200	0.228700	0.120800
C2011	C201	0.864720	0.300060	0.864720
H91	H9	0.879200	0.271300	0.879200
C2021	C202	0.864720	0.800060	0.364720
H101	H10	0.879200	0.771300	0.379200
C2031	C203	0.364720	0.300060	0.364720
H111	H11	0.379200	0.271300	0.379200
C2041	C204	0.364720	0.800060	0.864720
H121	H12	0.379200	0.771300	0.879200
C2051	C205	0.135280	0.699940	0.864720
H131	H13	0.120800	0.728700	0.879200
C2061	C206	0.135280	0.199940	0.364720
H141	H14	0.120800	0.228700	0.379200
C2071	C207	0.635280	0.699940	0.364720
H151	H15	0.620800	0.728700	0.379200
C2081	C208	0.635280	0.199940	0.864720
H161	H16	0.620800	0.228700	0.879200
C2091	C209	0.135280	0.135280	0.300060
H171	H17	0.120800	0.120800	0.271300
C2101	C210	0.135280	0.635280	0.800060
H181	H18	0.120800	0.620800	0.771300
C2111	C211	0.635280	0.135280	0.800060
H191	H19	0.620800	0.120800	0.771300
C2121	C212	0.635280	0.635280	0.300060
H201	H20	0.620800	0.620800	0.271300
C2131	C213	0.135280	0.864720	0.699940
H211	H21	0.120800	0.879200	0.728700
C2141	C214	0.135280	0.364720	0.199940
H221	H22	0.120800	0.379200	0.228700
C2151	C215	0.635280	0.864720	0.199940
H231	H23	0.620800	0.879200	0.228700
C2161	C216	0.635280	0.364720	0.699940
H241	H24	0.620800	0.379200	0.728700
C2171	C217	0.864720	0.864720	0.300060
H251	H25	0.879200	0.879200	0.271300
C2181	C218	0.864720	0.364720	0.800060
H261	H26	0.879200	0.379200	0.771300
C2191	C219	0.364720	0.864720	0.800060
H271	H27	0.379200	0.879200	0.771300
C2201	C220	0.364720	0.364720	0.300060
H281	H28	0.379200	0.379200	0.271300
C2211	C221	0.864720	0.135280	0.699940
H291	H29	0.879200	0.120800	0.728700
C2221	C222	0.864720	0.635280	0.199940
H301	H30	0.879200	0.620800	0.228700
C2231	C223	0.364720	0.135280	0.199940
H311	H31	0.379200	0.120800	0.228700
C2241	C224	0.364720	0.635280	0.699940
H321	H32	0.379200	0.620800	0.728700
C2251	C225	0.300060	0.135280	0.135280
H331	H33	0.271300	0.120800	0.120800
C2261	C226	0.300060	0.635280	0.635280
H341	H34	0.271300	0.620800	0.620800
C2271	C227	0.800060	0.135280	0.635280
H351	H35	0.771300	0.120800	0.620800
C2281	C228	0.800060	0.635280	0.135280
H361	H36	0.771300	0.620800	0.120800
C2291	C229	0.699940	0.135280	0.864720
H371	H37	0.728700	0.120800	0.879200
C2301	C230	0.699940	0.635280	0.364720
H381	H38	0.728700	0.620800	0.379200
C2311	C231	0.199940	0.135280	0.364720
H391	H39	0.228700	0.120800	0.379200
C2321	C232	0.199940	0.635280	0.864720
H401	H40	0.228700	0.620800	0.879200
C2331	C233	0.300060	0.864720	0.864720
H411	H41	0.271300	0.879200	0.879200
C2341	C234	0.300060	0.364720	0.364720
H421	H42	0.271300	0.379200	0.379200
C2351	C235	0.800060	0.864720	0.364720
H431	H43	0.771300	0.879200	0.379200
C2361	C236	0.800060	0.364720	0.864720
H441	H44	0.771300	0.379200	0.879200
C2371	C237	0.699940	0.864720	0.135280
H451	H45	0.728700	0.879200	0.120800
C2381	C238	0.699940	0.364720	0.635280
H461	H46	0.728700	0.379200	0.620800
C2391	C239	0.199940	0.864720	0.635280
H471	H47	0.228700	0.879200	0.620800
C2401	C240	0.199940	0.364720	0.135280
H481	H48	0.228700	0.379200	0.120800
C2411	C241	0.300060	0.135280	0.864720
H491	H49	0.271300	0.120800	0.879200
C2421	C242	0.300060	0.635280	0.364720
H501	H50	0.271300	0.620800	0.379200
C2431	C243	0.800060	0.135280	0.364720
H511	H51	0.771300	0.120800	0.379200
C2441	C244	0.800060	0.635280	0.864720
H521	H52	0.771300	0.620800	0.879200
C2451	C245	0.699940	0.864720	0.864720
H531	H53	0.728700	0.879200	0.879200
C2461	C246	0.699940	0.364720	0.364720
H541	H54	0.728700	0.379200	0.379200
C2471	C247	0.199940	0.864720	0.364720
H551	H55	0.228700	0.879200	0.379200
C2481	C248	0.199940	0.364720	0.864720
H561	H56	0.228700	0.379200	0.879200
C2491	C249	0.300060	0.864720	0.135280
H571	H57	0.271300	0.879200	0.120800
C2501	C250	0.300060	0.364720	0.635280
H581	H58	0.271300	0.379200	0.620800
C2511	C251	0.800060	0.864720	0.635280
H591	H59	0.771300	0.879200	0.620800
C2521	C252	0.800060	0.364720	0.135280
H601	H60	0.771300	0.379200	0.120800
C2531	C253	0.699940	0.135280	0.135280
H611	H61	0.728700	0.120800	0.120800
C2541	C254	0.699940	0.635280	0.635280
H621	H62	0.728700	0.620800	0.620800
C2551	C255	0.199940	0.135280	0.635280
H631	H63	0.228700	0.120800	0.620800
C2561	C256	0.199940	0.635280	0.135280
H641	H64	0.228700	0.620800	0.120800
C2571	C257	0.135280	0.135280	0.699940
H651	H65	0.120800	0.120800	0.728700
C2581	C258	0.135280	0.635280	0.199940
H661	H66	0.120800	0.620800	0.228700
C2591	C259	0.635280	0.135280	0.199940
H671	H67	0.620800	0.120800	0.228700
C2601	C260	0.635280	0.635280	0.699940
H681	H68	0.620800	0.620800	0.728700
C2611	C261	0.864720	0.135280	0.300060
H691	H69	0.879200	0.120800	0.271300
C2621	C262	0.864720	0.635280	0.800060
H701	H70	0.879200	0.620800	0.771300
C2631	C263	0.364720	0.135280	0.800060
H711	H71	0.379200	0.120800	0.771300
C2641	C264	0.364720	0.635280	0.300060
H721	H72	0.379200	0.620800	0.271300
C2651	C265	0.864720	0.864720	0.699940
H731	H73	0.879200	0.879200	0.728700
C2661	C266	0.864720	0.364720	0.199940
H741	H74	0.879200	0.379200	0.228700
C2671	C267	0.364720	0.864720	0.199940
H751	H75	0.379200	0.879200	0.228700
C2681	C268	0.364720	0.364720	0.699940
H761	H76	0.379200	0.379200	0.728700
C2691	C269	0.135280	0.864720	0.300060
H771	H77	0.120800	0.879200	0.271300
C2701	C270	0.135280	0.364720	0.800060
H781	H78	0.120800	0.379200	0.771300
C2711	C271	0.635280	0.864720	0.800060
H791	H79	0.620800	0.879200	0.771300
C2721	C272	0.635280	0.364720	0.300060
H801	H80	0.620800	0.379200	0.271300
C2731	C273	0.135280	0.300060	0.864720
H811	H81	0.120800	0.271300	0.879200
C2741	C274	0.135280	0.800060	0.364720
H821	H82	0.120800	0.771300	0.379200
C2751	C275	0.635280	0.300060	0.364720
H831	H83	0.620800	0.271300	0.379200
C2761	C276	0.635280	0.800060	0.864720
H841	H84	0.620800	0.771300	0.879200
C2771	C277	0.135280	0.699940	0.135280
H851	H85	0.120800	0.728700	0.120800
C2781	C278	0.135280	0.199940	0.635280
H861	H86	0.120800	0.228700	0.620800
C2791	C279	0.635280	0.699940	0.635280
H871	H87	0.620800	0.728700	0.620800
C2801	C280	0.635280	0.199940	0.135280
H881	H88	0.620800	0.228700	0.120800
C2811	C281	0.864720	0.300060	0.135280
H891	H89	0.879200	0.271300	0.120800
C2821	C282	0.864720	0.800060	0.635280
H901	H90	0.879200	0.771300	0.620800
C2831	C283	0.364720	0.300060	0.635280
H911	H91	0.379200	0.271300	0.620800
C2841	C284	0.364720	0.800060	0.135280
H921	H92	0.379200	0.771300	0.120800
C2851	C285	0.864720	0.699940	0.864720
H931	H93	0.879200	0.728700	0.879200
C2861	C286	0.864720	0.199940	0.364720
H941	H94	0.879200	0.228700	0.379200
C2871	C287	0.364720	0.699940	0.364720
H951	H95	0.379200	0.728700	0.379200
C2881	C288	0.364720	0.199940	0.864720
H961	H96	0.379200	0.228700	0.879200
