data_YOZQAG_charged_PM
_symmetry_space_group_name_H-M	'P1'
_cell_length_a	23.078100
_cell_length_b	23.078100
_cell_length_c	27.378900
_cell_angle_alpha	65.073400
_cell_angle_beta	65.073400
_cell_angle_gamma	60.000000
_symmetry_Int_Tables_number 1

loop_
_symmetry_equiv_pos_as_xyz
'x,y,z'

loop_
_atom_site_label
_atom_site_type_symbol
_atom_site_fract_x
_atom_site_fract_y
_atom_site_fract_z
Zn11	Zn1	0.309270	0.332630	0.278100
Zn21	Zn2	0.203080	0.428770	0.212130
Zn31	Zn3	0.332630	0.080000	0.278100
Zn41	Zn4	0.428770	0.156020	0.212130
Zn51	Zn5	0.080000	0.309270	0.278100
Zn61	Zn6	0.156020	0.203080	0.212130
Zn71	Zn7	0.690730	0.667370	0.721900
Zn81	Zn8	0.796920	0.571230	0.787870
Zn91	Zn9	0.667370	0.920000	0.721900
Zn101	Zn10	0.571230	0.843980	0.787870
Zn111	Zn11	0.920000	0.690730	0.721900
Zn121	Zn12	0.843980	0.796920	0.787870
Zn131	Zn13	0.734850	0.734850	0.795450
Zn141	Zn14	0.265150	0.265150	0.204550
H11	H1	0.052200	0.575600	0.595200
H21	H2	0.863100	0.667000	0.569700
H31	H3	0.908400	0.627700	0.491700
H41	H4	0.974900	0.585700	0.405900
H51	H5	0.051600	0.539100	0.331800
H61	H6	0.208800	0.457400	0.398100
H71	H7	0.474400	0.398000	0.159000
H81	H8	0.313900	0.559600	0.105000
H91	H9	0.552200	0.447800	0.090600
H101	H10	0.617600	0.518400	0.009000
H111	H11	0.467400	0.725600	0.918400
H121	H12	0.660500	0.593000	0.933100
H131	H13	0.575600	0.777000	0.595200
H141	H14	0.667000	0.900200	0.569700
H151	H15	0.627700	0.972200	0.491700
H161	H16	0.585700	0.033500	0.405900
H171	H17	0.539100	0.077500	0.331800
H181	H18	0.457400	0.935700	0.398100
H191	H19	0.398000	0.968600	0.159000
H201	H20	0.559600	0.021500	0.105000
H211	H21	0.447800	0.909400	0.090600
H221	H22	0.518400	0.855000	0.009000
H231	H23	0.725600	0.888600	0.918400
H241	H24	0.593000	0.813400	0.933100
H251	H25	0.777000	0.052200	0.595200
H261	H26	0.900200	0.863100	0.569700
H271	H27	0.972200	0.908400	0.491700
H281	H28	0.033500	0.974900	0.405900
H291	H29	0.077500	0.051600	0.331800
H301	H30	0.935700	0.208800	0.398100
H311	H31	0.968600	0.474400	0.159000
H321	H32	0.021500	0.313900	0.105000
H331	H33	0.909400	0.552200	0.090600
H341	H34	0.855000	0.617600	0.009000
H351	H35	0.888600	0.467400	0.918400
H361	H36	0.813400	0.660500	0.933100
H371	H37	0.947800	0.424400	0.404800
H381	H38	0.136900	0.333000	0.430300
H391	H39	0.091600	0.372300	0.508300
H401	H40	0.025100	0.414300	0.594100
H411	H41	0.948400	0.460900	0.668200
H421	H42	0.791200	0.542600	0.601900
H431	H43	0.525600	0.602000	0.841000
H441	H44	0.686100	0.440400	0.895000
H451	H45	0.447800	0.552200	0.909400
H461	H46	0.382400	0.481600	0.991000
H471	H47	0.532600	0.274400	0.081600
H481	H48	0.339500	0.407000	0.066900
H491	H49	0.424400	0.223000	0.404800
H501	H50	0.333000	0.099800	0.430300
H511	H51	0.372300	0.027800	0.508300
H521	H52	0.414300	0.966500	0.594100
H531	H53	0.460900	0.922500	0.668200
H541	H54	0.542600	0.064300	0.601900
H551	H55	0.602000	0.031400	0.841000
H561	H56	0.440400	0.978500	0.895000
H571	H57	0.552200	0.090600	0.909400
H581	H58	0.481600	0.145000	0.991000
H591	H59	0.274400	0.111400	0.081600
H601	H60	0.407000	0.186600	0.066900
H611	H61	0.223000	0.947800	0.404800
H621	H62	0.099800	0.136900	0.430300
H631	H63	0.027800	0.091600	0.508300
H641	H64	0.966500	0.025100	0.594100
H651	H65	0.922500	0.948400	0.668200
H661	H66	0.064300	0.791200	0.601900
H671	H67	0.031400	0.525600	0.841000
H681	H68	0.978500	0.686100	0.895000
H691	H69	0.090600	0.447800	0.909400
H701	H70	0.145000	0.382400	0.991000
H711	H71	0.111400	0.532600	0.081600
H721	H72	0.186600	0.339500	0.066900
C11	C1	0.919500	0.656600	0.638700
C21	C2	0.952080	0.625980	0.590760
C31	C3	0.023120	0.587220	0.574440
C41	C4	0.910540	0.641140	0.558780
C51	C5	0.049380	0.566380	0.525660
C61	C6	0.937720	0.618720	0.511440
C71	C7	0.006980	0.583780	0.493560
C81	C8	0.047470	0.554870	0.445290
C91	C9	0.117730	0.517330	0.441210
C101	C10	0.022040	0.561440	0.403980
C111	C11	0.067630	0.531530	0.360810
C121	C12	0.162150	0.483950	0.399150
C131	C13	0.136660	0.490360	0.359820
C141	C14	0.182590	0.451490	0.316830
C151	C15	0.340780	0.436180	0.180660
C161	C16	0.387300	0.473700	0.138000
C171	C17	0.457910	0.440710	0.134070
C181	C18	0.361150	0.537250	0.102450
C191	C19	0.504820	0.470220	0.093540
C201	C20	0.405950	0.567150	0.063150
C211	C21	0.477220	0.535120	0.057540
C221	C22	0.516880	0.575280	0.010260
C231	C23	0.473770	0.636970	0.981490
C241	C24	0.587410	0.559710	0.990970
C251	C25	0.497560	0.684160	0.936220
C261	C26	0.612880	0.604380	0.945760
C271	C27	0.568990	0.666190	0.918730
C281	C28	0.598260	0.714860	0.868120
C291	C29	0.656600	0.785200	0.638700
C301	C30	0.625980	0.831180	0.590760
C311	C31	0.587220	0.815220	0.574440
C321	C32	0.641140	0.889540	0.558780
C331	C33	0.566380	0.858580	0.525660
C341	C34	0.618720	0.932120	0.511440
C351	C35	0.583780	0.915680	0.493560
C361	C36	0.554870	0.952370	0.445290
C371	C37	0.517330	0.923730	0.441210
C381	C38	0.561440	0.012540	0.403980
C391	C39	0.531530	0.040030	0.360810
C401	C40	0.483950	0.954750	0.399150
C411	C41	0.490360	0.013160	0.359820
C421	C42	0.451490	0.049090	0.316830
C431	C43	0.436180	0.042380	0.180660
C441	C44	0.473700	0.001000	0.138000
C451	C45	0.440710	0.967310	0.134070
C461	C46	0.537250	0.999150	0.102450
C471	C47	0.470220	0.931420	0.093540
C481	C48	0.567150	0.963750	0.063150
C491	C49	0.535120	0.930120	0.057540
C501	C50	0.575280	0.897580	0.010260
C511	C51	0.636970	0.907770	0.981490
C521	C52	0.559710	0.861910	0.990970
C531	C53	0.684160	0.882060	0.936220
C541	C54	0.604380	0.836980	0.945760
C551	C55	0.666190	0.846090	0.918730
C561	C56	0.714860	0.818760	0.868120
C571	C57	0.785200	0.919500	0.638700
C581	C58	0.831180	0.952080	0.590760
C591	C59	0.815220	0.023120	0.574440
C601	C60	0.889540	0.910540	0.558780
C611	C61	0.858580	0.049380	0.525660
C621	C62	0.932120	0.937720	0.511440
C631	C63	0.915680	0.006980	0.493560
C641	C64	0.952370	0.047470	0.445290
C651	C65	0.923730	0.117730	0.441210
C661	C66	0.012540	0.022040	0.403980
C671	C67	0.040030	0.067630	0.360810
C681	C68	0.954750	0.162150	0.399150
C691	C69	0.013160	0.136660	0.359820
C701	C70	0.049090	0.182590	0.316830
C711	C71	0.042380	0.340780	0.180660
C721	C72	0.001000	0.387300	0.138000
C731	C73	0.967310	0.457910	0.134070
C741	C74	0.999150	0.361150	0.102450
C751	C75	0.931420	0.504820	0.093540
C761	C76	0.963750	0.405950	0.063150
C771	C77	0.930120	0.477220	0.057540
C781	C78	0.897580	0.516880	0.010260
C791	C79	0.907770	0.473770	0.981490
C801	C80	0.861910	0.587410	0.990970
C811	C81	0.882060	0.497560	0.936220
C821	C82	0.836980	0.612880	0.945760
C831	C83	0.846090	0.568990	0.918730
C841	C84	0.818760	0.598260	0.868120
C851	C85	0.080500	0.343400	0.361300
C861	C86	0.047920	0.374020	0.409240
C871	C87	0.976880	0.412780	0.425560
C881	C88	0.089460	0.358860	0.441220
C891	C89	0.950620	0.433620	0.474340
C901	C90	0.062280	0.381280	0.488560
C911	C91	0.993020	0.416220	0.506440
C921	C92	0.952530	0.445130	0.554710
C931	C93	0.882270	0.482670	0.558790
C941	C94	0.977960	0.438560	0.596020
C951	C95	0.932370	0.468470	0.639190
C961	C96	0.837850	0.516050	0.600850
C971	C97	0.863340	0.509640	0.640180
C981	C98	0.817410	0.548510	0.683170
C991	C99	0.659220	0.563820	0.819340
C1001	C100	0.612700	0.526300	0.862000
C1011	C101	0.542090	0.559290	0.865930
C1021	C102	0.638850	0.462750	0.897550
C1031	C103	0.495180	0.529780	0.906460
C1041	C104	0.594050	0.432850	0.936850
C1051	C105	0.522780	0.464880	0.942460
C1061	C106	0.483120	0.424720	0.989740
C1071	C107	0.526230	0.363030	0.018510
C1081	C108	0.412590	0.440290	0.009030
C1091	C109	0.502440	0.315840	0.063780
C1101	C110	0.387120	0.395620	0.054240
C1111	C111	0.431010	0.333810	0.081270
C1121	C112	0.401740	0.285140	0.131880
C1131	C113	0.343400	0.214800	0.361300
C1141	C114	0.374020	0.168820	0.409240
C1151	C115	0.412780	0.184780	0.425560
C1161	C116	0.358860	0.110460	0.441220
C1171	C117	0.433620	0.141420	0.474340
C1181	C118	0.381280	0.067880	0.488560
C1191	C119	0.416220	0.084320	0.506440
C1201	C120	0.445130	0.047630	0.554710
C1211	C121	0.482670	0.076270	0.558790
C1221	C122	0.438560	0.987460	0.596020
C1231	C123	0.468470	0.959970	0.639190
C1241	C124	0.516050	0.045250	0.600850
C1251	C125	0.509640	0.986840	0.640180
C1261	C126	0.548510	0.950910	0.683170
C1271	C127	0.563820	0.957620	0.819340
C1281	C128	0.526300	0.999000	0.862000
C1291	C129	0.559290	0.032690	0.865930
C1301	C130	0.462750	0.000850	0.897550
C1311	C131	0.529780	0.068580	0.906460
C1321	C132	0.432850	0.036250	0.936850
C1331	C133	0.464880	0.069880	0.942460
C1341	C134	0.424720	0.102420	0.989740
C1351	C135	0.363030	0.092230	0.018510
C1361	C136	0.440290	0.138090	0.009030
C1371	C137	0.315840	0.117940	0.063780
C1381	C138	0.395620	0.163020	0.054240
C1391	C139	0.333810	0.153910	0.081270
C1401	C140	0.285140	0.181240	0.131880
C1411	C141	0.214800	0.080500	0.361300
C1421	C142	0.168820	0.047920	0.409240
C1431	C143	0.184780	0.976880	0.425560
C1441	C144	0.110460	0.089460	0.441220
C1451	C145	0.141420	0.950620	0.474340
C1461	C146	0.067880	0.062280	0.488560
C1471	C147	0.084320	0.993020	0.506440
C1481	C148	0.047630	0.952530	0.554710
C1491	C149	0.076270	0.882270	0.558790
C1501	C150	0.987460	0.977960	0.596020
C1511	C151	0.959970	0.932370	0.639190
C1521	C152	0.045250	0.837850	0.600850
C1531	C153	0.986840	0.863340	0.640180
C1541	C154	0.950910	0.817410	0.683170
C1551	C155	0.957620	0.659220	0.819340
C1561	C156	0.999000	0.612700	0.862000
C1571	C157	0.032690	0.542090	0.865930
C1581	C158	0.000850	0.638850	0.897550
C1591	C159	0.068580	0.495180	0.906460
C1601	C160	0.036250	0.594050	0.936850
C1611	C161	0.069880	0.522780	0.942460
C1621	C162	0.102420	0.483120	0.989740
C1631	C163	0.092230	0.526230	0.018510
C1641	C164	0.138090	0.412590	0.009030
C1651	C165	0.117940	0.502440	0.063780
C1661	C166	0.163020	0.387120	0.054240
C1671	C167	0.153910	0.431010	0.081270
C1681	C168	0.181240	0.401740	0.131880
S11	S1	0.135510	0.514460	0.498840
S21	S2	0.385140	0.647160	0.012000
S31	S3	0.514460	0.851190	0.498840
S41	S4	0.647160	0.955700	0.012000
S51	S5	0.851190	0.135510	0.498840
S61	S6	0.955700	0.385140	0.012000
S71	S7	0.864490	0.485540	0.501160
S81	S8	0.614860	0.352840	0.988000
S91	S9	0.485540	0.148810	0.501160
S101	S10	0.352840	0.044300	0.988000
S111	S11	0.148810	0.864490	0.501160
S121	S12	0.044300	0.614860	0.988000
O11	O1	0.241780	0.406680	0.321060
O21	O2	0.156450	0.466550	0.277950
O31	O3	0.958900	0.640700	0.667800
O41	O4	0.857050	0.696150	0.648750
O51	O5	0.179070	0.550570	0.480990
O61	O6	0.154650	0.445350	0.535950
O71	O7	0.661590	0.692690	0.847930
O81	O8	0.554630	0.774530	0.852010
O91	O9	0.365650	0.382050	0.216150
O101	O10	0.280190	0.463190	0.176430
O111	O11	0.360100	0.644000	0.973600
O121	O12	0.344300	0.703100	0.036900
O131	O13	0.755960	0.672360	0.746920
O141	O14	0.406680	0.030480	0.321060
O151	O15	0.466550	0.099050	0.277950
O161	O16	0.640700	0.732600	0.667800
O171	O17	0.696150	0.798050	0.648750
O181	O18	0.550570	0.789370	0.480990
O191	O19	0.445350	0.864050	0.535950
O201	O20	0.692690	0.797790	0.847930
O211	O21	0.774530	0.818830	0.852010
O221	O22	0.382050	0.036150	0.216150
O231	O23	0.463190	0.080190	0.176430
O241	O24	0.644000	0.022300	0.973600
O251	O25	0.703100	0.915700	0.036900
O261	O26	0.672360	0.824760	0.746920
O271	O27	0.030480	0.241780	0.321060
O281	O28	0.099050	0.156450	0.277950
O291	O29	0.732600	0.958900	0.667800
O301	O30	0.798050	0.857050	0.648750
O311	O31	0.789370	0.179070	0.480990
O321	O32	0.864050	0.154650	0.535950
O331	O33	0.797790	0.661590	0.847930
O341	O34	0.818830	0.554630	0.852010
O351	O35	0.036150	0.365650	0.216150
O361	O36	0.080190	0.280190	0.176430
O371	O37	0.022300	0.360100	0.973600
O381	O38	0.915700	0.344300	0.036900
O391	O39	0.824760	0.755960	0.746920
O401	O40	0.758220	0.593320	0.678940
O411	O41	0.843550	0.533450	0.722050
O421	O42	0.041100	0.359300	0.332200
O431	O43	0.142950	0.303850	0.351250
O441	O44	0.820930	0.449430	0.519010
O451	O45	0.845350	0.554650	0.464050
O461	O46	0.338410	0.307310	0.152070
O471	O47	0.445370	0.225470	0.147990
O481	O48	0.634350	0.617950	0.783850
O491	O49	0.719810	0.536810	0.823570
O501	O50	0.639900	0.356000	0.026400
O511	O51	0.655700	0.296900	0.963100
O521	O52	0.244040	0.327640	0.253080
O531	O53	0.593320	0.969520	0.678940
O541	O54	0.533450	0.900950	0.722050
O551	O55	0.359300	0.267400	0.332200
O561	O56	0.303850	0.201950	0.351250
O571	O57	0.449430	0.210630	0.519010
O581	O58	0.554650	0.135950	0.464050
O591	O59	0.307310	0.202210	0.152070
O601	O60	0.225470	0.181170	0.147990
O611	O61	0.617950	0.963850	0.783850
O621	O62	0.536810	0.919810	0.823570
O631	O63	0.356000	0.977700	0.026400
O641	O64	0.296900	0.084300	0.963100
O651	O65	0.327640	0.175240	0.253080
O661	O66	0.969520	0.758220	0.678940
O671	O67	0.900950	0.843550	0.722050
O681	O68	0.267400	0.041100	0.332200
O691	O69	0.201950	0.142950	0.351250
O701	O70	0.210630	0.820930	0.519010
O711	O71	0.135950	0.845350	0.464050
O721	O72	0.202210	0.338410	0.152070
O731	O73	0.181170	0.445370	0.147990
O741	O74	0.963850	0.634350	0.783850
O751	O75	0.919810	0.719810	0.823570
O761	O76	0.977700	0.639900	0.026400
O771	O77	0.084300	0.655700	0.963100
O781	O78	0.175240	0.244040	0.253080
