data_YOZYUJ_clean_PM
_symmetry_space_group_name_H-M	'P1'
_cell_length_a	12.145000
_cell_length_b	30.720000
_cell_length_c	22.750000
_cell_angle_alpha	90.000000
_cell_angle_beta	94.000000
_cell_angle_gamma	90.000000
_symmetry_Int_Tables_number 1

loop_
_symmetry_equiv_pos_as_xyz
'x,y,z'

loop_
_atom_site_label
_atom_site_type_symbol
_atom_site_fract_x
_atom_site_fract_y
_atom_site_fract_z
Zn11	Zn1	0.314270	0.132520	0.487470
Zn21	Zn2	0.258800	0.083100	0.342840
O11	O1	0.260600	0.172880	0.423480
O21	O2	0.175600	0.135810	0.348930
O31	O3	0.159400	0.322990	0.454540
O41	O4	0.069100	0.360420	0.385300
O51	O5	0.224600	0.029830	0.381040
O61	O6	0.052300	0.034380	0.341540
O71	O7	0.762500	0.939400	0.427000
O81	O8	0.816300	0.901190	0.504930
O91	O9	0.122300	0.923400	0.728500
O101	O10	0.297900	0.920360	0.761380
O111	O11	0.589000	0.903650	0.625610
O121	O12	0.546000	0.893880	0.530660
C11	C1	0.197700	0.170150	0.378000
C21	C2	0.143000	0.210650	0.355100
C31	C3	0.151300	0.248280	0.388700
H11	H1	0.190200	0.247900	0.425400
C41	C4	0.101900	0.286470	0.367900
C51	C5	0.041700	0.286360	0.313600
H21	H2	0.007000	0.311800	0.300000
C61	C6	0.032600	0.248820	0.279300
C71	C7	0.083100	0.211210	0.300800
H31	H3	0.076900	0.185800	0.278600
C81	C8	0.109700	0.327000	0.404500
C91	C9	0.122500	0.017690	0.376600
C101	C10	0.090800	0.984460	0.419000
C111	C11	0.983200	0.970380	0.418800
H41	H4	0.931200	0.980200	0.389900
C121	C12	0.951600	0.941470	0.461900
C131	C13	0.028500	0.927350	0.505400
H51	H5	0.007300	0.908300	0.534300
C141	C14	0.138300	0.941650	0.506300
C151	C15	0.168000	0.969510	0.462700
H61	H6	0.241000	0.978600	0.462300
C161	C16	0.218600	0.929110	0.555400
C171	C17	0.185800	0.929700	0.612800
H71	H7	0.112600	0.935500	0.619600
C181	C18	0.262400	0.921600	0.660300
C191	C19	0.373100	0.913320	0.650100
H81	H8	0.424900	0.909000	0.681600
C201	C20	0.404700	0.911510	0.592400
C211	C21	0.327900	0.919040	0.545300
H91	H9	0.349400	0.917400	0.507000
C221	C22	0.833400	0.926300	0.463600
C231	C23	0.226100	0.924500	0.721500
C241	C24	0.522300	0.902340	0.582200
O131	O13	0.163300	0.960700	0.728200
Zn31	Zn3	0.814270	0.632520	0.487470
Zn41	Zn4	0.758800	0.583100	0.342840
O141	O14	0.760600	0.672880	0.423480
O151	O15	0.675600	0.635810	0.348930
O161	O16	0.659400	0.822990	0.454540
O171	O17	0.569100	0.860420	0.385300
O181	O18	0.724600	0.529830	0.381040
O191	O19	0.552300	0.534380	0.341540
O201	O20	0.262500	0.439400	0.427000
O211	O21	0.316300	0.401190	0.504930
O221	O22	0.622300	0.423400	0.728500
O231	O23	0.797900	0.420360	0.761380
O241	O24	0.089000	0.403650	0.625610
O251	O25	0.046000	0.393880	0.530660
C251	C25	0.697700	0.670150	0.378000
C261	C26	0.643000	0.710650	0.355100
C271	C27	0.651300	0.748280	0.388700
H101	H10	0.690200	0.747900	0.425400
C281	C28	0.601900	0.786470	0.367900
C291	C29	0.541700	0.786360	0.313600
H111	H11	0.507000	0.811800	0.300000
C301	C30	0.532600	0.748820	0.279300
C311	C31	0.583100	0.711210	0.300800
H121	H12	0.576900	0.685800	0.278600
C321	C32	0.609700	0.827000	0.404500
C331	C33	0.622500	0.517690	0.376600
C341	C34	0.590800	0.484460	0.419000
C351	C35	0.483200	0.470380	0.418800
H131	H13	0.431200	0.480200	0.389900
C361	C36	0.451600	0.441470	0.461900
C371	C37	0.528500	0.427350	0.505400
H141	H14	0.507300	0.408300	0.534300
C381	C38	0.638300	0.441650	0.506300
C391	C39	0.668000	0.469510	0.462700
H151	H15	0.741000	0.478600	0.462300
C401	C40	0.718600	0.429110	0.555400
C411	C41	0.685800	0.429700	0.612800
H161	H16	0.612600	0.435500	0.619600
C421	C42	0.762400	0.421600	0.660300
C431	C43	0.873100	0.413320	0.650100
H171	H17	0.924900	0.409000	0.681600
C441	C44	0.904700	0.411510	0.592400
C451	C45	0.827900	0.419040	0.545300
H181	H18	0.849400	0.417400	0.507000
C461	C46	0.333400	0.426300	0.463600
C471	C47	0.726100	0.424500	0.721500
C481	C48	0.022300	0.402340	0.582200
O261	O26	0.663300	0.460700	0.728200
Zn51	Zn5	0.685730	0.132520	0.012530
Zn61	Zn6	0.741200	0.083100	0.157160
O271	O27	0.739400	0.172880	0.076520
O281	O28	0.824400	0.135810	0.151070
O291	O29	0.840600	0.322990	0.045460
O301	O30	0.930900	0.360420	0.114700
O311	O31	0.775400	0.029830	0.118960
O321	O32	0.947700	0.034380	0.158460
O331	O33	0.237500	0.939400	0.073000
O341	O34	0.183700	0.901190	0.995070
O351	O35	0.877700	0.923400	0.771500
O361	O36	0.702100	0.920360	0.738620
O371	O37	0.411000	0.903650	0.874390
O381	O38	0.454000	0.893880	0.969340
C491	C49	0.802300	0.170150	0.122000
C501	C50	0.857000	0.210650	0.144900
C511	C51	0.848700	0.248280	0.111300
H191	H19	0.809800	0.247900	0.074600
C521	C52	0.898100	0.286470	0.132100
C531	C53	0.958300	0.286360	0.186400
H201	H20	0.993000	0.311800	0.200000
C541	C54	0.967400	0.248820	0.220700
C551	C55	0.916900	0.211210	0.199200
H211	H21	0.923100	0.185800	0.221400
C561	C56	0.890300	0.327000	0.095500
C571	C57	0.877500	0.017690	0.123400
C581	C58	0.909200	0.984460	0.081000
C591	C59	0.016800	0.970380	0.081200
H221	H22	0.068800	0.980200	0.110100
C601	C60	0.048400	0.941470	0.038100
C611	C61	0.971500	0.927350	0.994600
H231	H23	0.992700	0.908300	0.965700
C621	C62	0.861700	0.941650	0.993700
C631	C63	0.832000	0.969510	0.037300
H241	H24	0.759000	0.978600	0.037700
C641	C64	0.781400	0.929110	0.944600
C651	C65	0.814200	0.929700	0.887200
H251	H25	0.887400	0.935500	0.880400
C661	C66	0.737600	0.921600	0.839700
C671	C67	0.626900	0.913320	0.849900
H261	H26	0.575100	0.909000	0.818400
C681	C68	0.595300	0.911510	0.907600
C691	C69	0.672100	0.919040	0.954700
H271	H27	0.650600	0.917400	0.993000
C701	C70	0.166600	0.926300	0.036400
C711	C71	0.773900	0.924500	0.778500
C721	C72	0.477700	0.902340	0.917800
O391	O39	0.836700	0.960700	0.771800
Zn71	Zn7	0.185730	0.632520	0.012530
Zn81	Zn8	0.241200	0.583100	0.157160
O401	O40	0.239400	0.672880	0.076520
O411	O41	0.324400	0.635810	0.151070
O421	O42	0.340600	0.822990	0.045460
O431	O43	0.430900	0.860420	0.114700
O441	O44	0.275400	0.529830	0.118960
O451	O45	0.447700	0.534380	0.158460
O461	O46	0.737500	0.439400	0.073000
O471	O47	0.683700	0.401190	0.995070
O481	O48	0.377700	0.423400	0.771500
O491	O49	0.202100	0.420360	0.738620
O501	O50	0.911000	0.403650	0.874390
O511	O51	0.954000	0.393880	0.969340
C731	C73	0.302300	0.670150	0.122000
C741	C74	0.357000	0.710650	0.144900
C751	C75	0.348700	0.748280	0.111300
H281	H28	0.309800	0.747900	0.074600
C761	C76	0.398100	0.786470	0.132100
C771	C77	0.458300	0.786360	0.186400
H291	H29	0.493000	0.811800	0.200000
C781	C78	0.467400	0.748820	0.220700
C791	C79	0.416900	0.711210	0.199200
H301	H30	0.423100	0.685800	0.221400
C801	C80	0.390300	0.827000	0.095500
C811	C81	0.377500	0.517690	0.123400
C821	C82	0.409200	0.484460	0.081000
C831	C83	0.516800	0.470380	0.081200
H311	H31	0.568800	0.480200	0.110100
C841	C84	0.548400	0.441470	0.038100
C851	C85	0.471500	0.427350	0.994600
H321	H32	0.492700	0.408300	0.965700
C861	C86	0.361700	0.441650	0.993700
C871	C87	0.332000	0.469510	0.037300
H331	H33	0.259000	0.478600	0.037700
C881	C88	0.281400	0.429110	0.944600
C891	C89	0.314200	0.429700	0.887200
H341	H34	0.387400	0.435500	0.880400
C901	C90	0.237600	0.421600	0.839700
C911	C91	0.126900	0.413320	0.849900
H351	H35	0.075100	0.409000	0.818400
C921	C92	0.095300	0.411510	0.907600
C931	C93	0.172100	0.419040	0.954700
H361	H36	0.150600	0.417400	0.993000
C941	C94	0.666600	0.426300	0.036400
C951	C95	0.273900	0.424500	0.778500
C961	C96	0.977700	0.402340	0.917800
O521	O52	0.336700	0.460700	0.771800
Zn91	Zn9	0.685730	0.867480	0.512530
Zn101	Zn10	0.741200	0.916900	0.657160
O531	O53	0.739400	0.827120	0.576520
O541	O54	0.824400	0.864190	0.651070
O551	O55	0.840600	0.677010	0.545460
O561	O56	0.930900	0.639580	0.614700
O571	O57	0.775400	0.970170	0.618960
O581	O58	0.947700	0.965620	0.658460
O591	O59	0.237500	0.060600	0.573000
O601	O60	0.183700	0.098810	0.495070
O611	O61	0.877700	0.076600	0.271500
O621	O62	0.702100	0.079640	0.238620
O631	O63	0.411000	0.096350	0.374390
O641	O64	0.454000	0.106120	0.469340
C971	C97	0.802300	0.829850	0.622000
C981	C98	0.857000	0.789350	0.644900
C991	C99	0.848700	0.751720	0.611300
H371	H37	0.809800	0.752100	0.574600
C1001	C100	0.898100	0.713530	0.632100
C1011	C101	0.958300	0.713640	0.686400
H381	H38	0.993000	0.688200	0.700000
C1021	C102	0.967400	0.751180	0.720700
C1031	C103	0.916900	0.788790	0.699200
H391	H39	0.923100	0.814200	0.721400
C1041	C104	0.890300	0.673000	0.595500
C1051	C105	0.877500	0.982310	0.623400
C1061	C106	0.909200	0.015540	0.581000
C1071	C107	0.016800	0.029620	0.581200
H401	H40	0.068800	0.019800	0.610100
C1081	C108	0.048400	0.058530	0.538100
C1091	C109	0.971500	0.072650	0.494600
H411	H41	0.992700	0.091700	0.465700
C1101	C110	0.861700	0.058350	0.493700
C1111	C111	0.832000	0.030490	0.537300
H421	H42	0.759000	0.021400	0.537700
C1121	C112	0.781400	0.070890	0.444600
C1131	C113	0.814200	0.070300	0.387200
H431	H43	0.887400	0.064500	0.380400
C1141	C114	0.737600	0.078400	0.339700
C1151	C115	0.626900	0.086680	0.349900
H441	H44	0.575100	0.091000	0.318400
C1161	C116	0.595300	0.088490	0.407600
C1171	C117	0.672100	0.080960	0.454700
H451	H45	0.650600	0.082600	0.493000
C1181	C118	0.166600	0.073700	0.536400
C1191	C119	0.773900	0.075500	0.278500
C1201	C120	0.477700	0.097660	0.417800
O651	O65	0.836700	0.039300	0.271800
Zn111	Zn11	0.185730	0.367480	0.512530
Zn121	Zn12	0.241200	0.416900	0.657160
O661	O66	0.239400	0.327120	0.576520
O671	O67	0.324400	0.364190	0.651070
O681	O68	0.340600	0.177010	0.545460
O691	O69	0.430900	0.139580	0.614700
O701	O70	0.275400	0.470170	0.618960
O711	O71	0.447700	0.465620	0.658460
O721	O72	0.737500	0.560600	0.573000
O731	O73	0.683700	0.598810	0.495070
O741	O74	0.377700	0.576600	0.271500
O751	O75	0.202100	0.579640	0.238620
O761	O76	0.911000	0.596350	0.374390
O771	O77	0.954000	0.606120	0.469340
C1211	C121	0.302300	0.329850	0.622000
C1221	C122	0.357000	0.289350	0.644900
C1231	C123	0.348700	0.251720	0.611300
H461	H46	0.309800	0.252100	0.574600
C1241	C124	0.398100	0.213530	0.632100
C1251	C125	0.458300	0.213640	0.686400
H471	H47	0.493000	0.188200	0.700000
C1261	C126	0.467400	0.251180	0.720700
C1271	C127	0.416900	0.288790	0.699200
H481	H48	0.423100	0.314200	0.721400
C1281	C128	0.390300	0.173000	0.595500
C1291	C129	0.377500	0.482310	0.623400
C1301	C130	0.409200	0.515540	0.581000
C1311	C131	0.516800	0.529620	0.581200
H491	H49	0.568800	0.519800	0.610100
C1321	C132	0.548400	0.558530	0.538100
C1331	C133	0.471500	0.572650	0.494600
H501	H50	0.492700	0.591700	0.465700
C1341	C134	0.361700	0.558350	0.493700
C1351	C135	0.332000	0.530490	0.537300
H511	H51	0.259000	0.521400	0.537700
C1361	C136	0.281400	0.570890	0.444600
C1371	C137	0.314200	0.570300	0.387200
H521	H52	0.387400	0.564500	0.380400
C1381	C138	0.237600	0.578400	0.339700
C1391	C139	0.126900	0.586680	0.349900
H531	H53	0.075100	0.591000	0.318400
C1401	C140	0.095300	0.588490	0.407600
C1411	C141	0.172100	0.580960	0.454700
H541	H54	0.150600	0.582600	0.493000
C1421	C142	0.666600	0.573700	0.536400
C1431	C143	0.273900	0.575500	0.278500
C1441	C144	0.977700	0.597660	0.417800
O781	O78	0.336700	0.539300	0.271800
Zn131	Zn13	0.314270	0.867480	0.987470
Zn141	Zn14	0.258800	0.916900	0.842840
O791	O79	0.260600	0.827120	0.923480
O801	O80	0.175600	0.864190	0.848930
O811	O81	0.159400	0.677010	0.954540
O821	O82	0.069100	0.639580	0.885300
O831	O83	0.224600	0.970170	0.881040
O841	O84	0.052300	0.965620	0.841540
O851	O85	0.762500	0.060600	0.927000
O861	O86	0.816300	0.098810	0.004930
O871	O87	0.122300	0.076600	0.228500
O881	O88	0.297900	0.079640	0.261380
O891	O89	0.589000	0.096350	0.125610
O901	O90	0.546000	0.106120	0.030660
C1451	C145	0.197700	0.829850	0.878000
C1461	C146	0.143000	0.789350	0.855100
C1471	C147	0.151300	0.751720	0.888700
H551	H55	0.190200	0.752100	0.925400
C1481	C148	0.101900	0.713530	0.867900
C1491	C149	0.041700	0.713640	0.813600
H561	H56	0.007000	0.688200	0.800000
C1501	C150	0.032600	0.751180	0.779300
C1511	C151	0.083100	0.788790	0.800800
H571	H57	0.076900	0.814200	0.778600
C1521	C152	0.109700	0.673000	0.904500
C1531	C153	0.122500	0.982310	0.876600
C1541	C154	0.090800	0.015540	0.919000
C1551	C155	0.983200	0.029620	0.918800
H581	H58	0.931200	0.019800	0.889900
C1561	C156	0.951600	0.058530	0.961900
C1571	C157	0.028500	0.072650	0.005400
H591	H59	0.007300	0.091700	0.034300
C1581	C158	0.138300	0.058350	0.006300
C1591	C159	0.168000	0.030490	0.962700
H601	H60	0.241000	0.021400	0.962300
C1601	C160	0.218600	0.070890	0.055400
C1611	C161	0.185800	0.070300	0.112800
H611	H61	0.112600	0.064500	0.119600
C1621	C162	0.262400	0.078400	0.160300
C1631	C163	0.373100	0.086680	0.150100
H621	H62	0.424900	0.091000	0.181600
C1641	C164	0.404700	0.088490	0.092400
C1651	C165	0.327900	0.080960	0.045300
H631	H63	0.349400	0.082600	0.007000
C1661	C166	0.833400	0.073700	0.963600
C1671	C167	0.226100	0.075500	0.221500
C1681	C168	0.522300	0.097660	0.082200
O911	O91	0.163300	0.039300	0.228200
Zn151	Zn15	0.814270	0.367480	0.987470
Zn161	Zn16	0.758800	0.416900	0.842840
O921	O92	0.760600	0.327120	0.923480
O931	O93	0.675600	0.364190	0.848930
O941	O94	0.659400	0.177010	0.954540
O951	O95	0.569100	0.139580	0.885300
O961	O96	0.724600	0.470170	0.881040
O971	O97	0.552300	0.465620	0.841540
O981	O98	0.262500	0.560600	0.927000
O991	O99	0.316300	0.598810	0.004930
O1001	O100	0.622300	0.576600	0.228500
O1011	O101	0.797900	0.579640	0.261380
O1021	O102	0.089000	0.596350	0.125610
O1031	O103	0.046000	0.606120	0.030660
C1691	C169	0.697700	0.329850	0.878000
C1701	C170	0.643000	0.289350	0.855100
C1711	C171	0.651300	0.251720	0.888700
H641	H64	0.690200	0.252100	0.925400
C1721	C172	0.601900	0.213530	0.867900
C1731	C173	0.541700	0.213640	0.813600
H651	H65	0.507000	0.188200	0.800000
C1741	C174	0.532600	0.251180	0.779300
C1751	C175	0.583100	0.288790	0.800800
H661	H66	0.576900	0.314200	0.778600
C1761	C176	0.609700	0.173000	0.904500
C1771	C177	0.622500	0.482310	0.876600
C1781	C178	0.590800	0.515540	0.919000
C1791	C179	0.483200	0.529620	0.918800
H671	H67	0.431200	0.519800	0.889900
C1801	C180	0.451600	0.558530	0.961900
C1811	C181	0.528500	0.572650	0.005400
H681	H68	0.507300	0.591700	0.034300
C1821	C182	0.638300	0.558350	0.006300
C1831	C183	0.668000	0.530490	0.962700
H691	H69	0.741000	0.521400	0.962300
C1841	C184	0.718600	0.570890	0.055400
C1851	C185	0.685800	0.570300	0.112800
H701	H70	0.612600	0.564500	0.119600
C1861	C186	0.762400	0.578400	0.160300
C1871	C187	0.873100	0.586680	0.150100
H711	H71	0.924900	0.591000	0.181600
C1881	C188	0.904700	0.588490	0.092400
C1891	C189	0.827900	0.580960	0.045300
H721	H72	0.849400	0.582600	0.007000
C1901	C190	0.333400	0.573700	0.963600
C1911	C191	0.726100	0.575500	0.221500
C1921	C192	0.022300	0.597660	0.082200
O1041	O104	0.663300	0.539300	0.228200
Zn171	Zn17	0.000000	0.037940	0.250000
Zn181	Zn18	0.500000	0.537940	0.250000
Zn191	Zn19	0.000000	0.962060	0.750000
Zn201	Zn20	0.500000	0.462060	0.750000
