data_YOZYOD_clean_PM
_symmetry_space_group_name_H-M	'P1'
_cell_length_a	16.646000
_cell_length_b	18.345000
_cell_length_c	16.309000
_cell_angle_alpha	90.000000
_cell_angle_beta	108.893000
_cell_angle_gamma	90.000000
_symmetry_Int_Tables_number 1

loop_
_symmetry_equiv_pos_as_xyz
'x,y,z'

loop_
_atom_site_label
_atom_site_type_symbol
_atom_site_fract_x
_atom_site_fract_y
_atom_site_fract_z
Zn11	Zn1	0.059500	0.137720	0.364510
O11	O1	0.096900	0.097310	0.481200
O21	O2	0.226400	0.140910	0.504600
O31	O3	0.510500	0.265610	0.849700
O41	O4	0.621700	0.224800	0.949200
O51	O5	0.658700	0.959600	0.995000
H11	H1	0.685900	0.921500	0.006300
O61	O6	0.553500	0.883900	0.927200
O71	O7	0.135800	0.903920	0.808500
O81	O8	0.043600	0.923000	0.676600
C11	C1	0.174500	0.105200	0.527400
C21	C2	0.201500	0.068200	0.614100
C31	C3	0.281600	0.082000	0.672100
H21	H2	0.317400	0.114700	0.657400
C41	C4	0.309200	0.047000	0.753300
C51	C5	0.253600	0.997500	0.774100
H31	H3	0.270200	0.974000	0.827500
C61	C6	0.173700	0.984200	0.714300
C71	C7	0.148800	0.018800	0.634200
H41	H4	0.096100	0.008500	0.594000
C81	C8	0.112800	0.933200	0.735300
C91	C9	0.397400	0.059300	0.812600
C101	C10	0.433800	0.128500	0.824000
H51	H5	0.403300	0.167600	0.792700
C111	C11	0.515100	0.140000	0.881300
C121	C12	0.563400	0.081100	0.923200
H61	H6	0.618000	0.088400	0.961400
C131	C13	0.530200	0.011400	0.907900
C141	C14	0.447300	0.001700	0.855300
H71	H7	0.424200	0.955000	0.848400
C151	C15	0.552800	0.215600	0.893800
C161	C16	0.581200	0.945500	0.944400
Zn21	Zn2	0.559500	0.637720	0.364510
O91	O9	0.596900	0.597310	0.481200
O101	O10	0.726400	0.640910	0.504600
O111	O11	0.010500	0.765610	0.849700
O121	O12	0.121700	0.724800	0.949200
O131	O13	0.158700	0.459600	0.995000
H81	H8	0.185900	0.421500	0.006300
O141	O14	0.053500	0.383900	0.927200
O151	O15	0.635800	0.403920	0.808500
O161	O16	0.543600	0.423000	0.676600
C171	C17	0.674500	0.605200	0.527400
C181	C18	0.701500	0.568200	0.614100
C191	C19	0.781600	0.582000	0.672100
H91	H9	0.817400	0.614700	0.657400
C201	C20	0.809200	0.547000	0.753300
C211	C21	0.753600	0.497500	0.774100
H101	H10	0.770200	0.474000	0.827500
C221	C22	0.673700	0.484200	0.714300
C231	C23	0.648800	0.518800	0.634200
H111	H11	0.596100	0.508500	0.594000
C241	C24	0.612800	0.433200	0.735300
C251	C25	0.897400	0.559300	0.812600
C261	C26	0.933800	0.628500	0.824000
H121	H12	0.903300	0.667600	0.792700
C271	C27	0.015100	0.640000	0.881300
C281	C28	0.063400	0.581100	0.923200
H131	H13	0.118000	0.588400	0.961400
C291	C29	0.030200	0.511400	0.907900
C301	C30	0.947300	0.501700	0.855300
H141	H14	0.924200	0.455000	0.848400
C311	C31	0.052800	0.715600	0.893800
C321	C32	0.081200	0.445500	0.944400
Zn31	Zn3	0.940500	0.137720	0.135490
O171	O17	0.903100	0.097310	0.018800
O181	O18	0.773600	0.140910	0.995400
O191	O19	0.489500	0.265610	0.650300
O201	O20	0.378300	0.224800	0.550800
O211	O21	0.341300	0.959600	0.505000
H151	H15	0.314100	0.921500	0.493700
O221	O22	0.446500	0.883900	0.572800
O231	O23	0.864200	0.903920	0.691500
O241	O24	0.956400	0.923000	0.823400
C331	C33	0.825500	0.105200	0.972600
C341	C34	0.798500	0.068200	0.885900
C351	C35	0.718400	0.082000	0.827900
H161	H16	0.682600	0.114700	0.842600
C361	C36	0.690800	0.047000	0.746700
C371	C37	0.746400	0.997500	0.725900
H171	H17	0.729800	0.974000	0.672500
C381	C38	0.826300	0.984200	0.785700
C391	C39	0.851200	0.018800	0.865800
H181	H18	0.903900	0.008500	0.906000
C401	C40	0.887200	0.933200	0.764700
C411	C41	0.602600	0.059300	0.687400
C421	C42	0.566200	0.128500	0.676000
H191	H19	0.596700	0.167600	0.707300
C431	C43	0.484900	0.140000	0.618700
C441	C44	0.436600	0.081100	0.576800
H201	H20	0.382000	0.088400	0.538600
C451	C45	0.469800	0.011400	0.592100
C461	C46	0.552700	0.001700	0.644700
H211	H21	0.575800	0.955000	0.651600
C471	C47	0.447200	0.215600	0.606200
C481	C48	0.418800	0.945500	0.555600
Zn41	Zn4	0.440500	0.637720	0.135490
O251	O25	0.403100	0.597310	0.018800
O261	O26	0.273600	0.640910	0.995400
O271	O27	0.989500	0.765610	0.650300
O281	O28	0.878300	0.724800	0.550800
O291	O29	0.841300	0.459600	0.505000
H221	H22	0.814100	0.421500	0.493700
O301	O30	0.946500	0.383900	0.572800
O311	O31	0.364200	0.403920	0.691500
O321	O32	0.456400	0.423000	0.823400
C491	C49	0.325500	0.605200	0.972600
C501	C50	0.298500	0.568200	0.885900
C511	C51	0.218400	0.582000	0.827900
H231	H23	0.182600	0.614700	0.842600
C521	C52	0.190800	0.547000	0.746700
C531	C53	0.246400	0.497500	0.725900
H241	H24	0.229800	0.474000	0.672500
C541	C54	0.326300	0.484200	0.785700
C551	C55	0.351200	0.518800	0.865800
H251	H25	0.403900	0.508500	0.906000
C561	C56	0.387200	0.433200	0.764700
C571	C57	0.102600	0.559300	0.687400
C581	C58	0.066200	0.628500	0.676000
H261	H26	0.096700	0.667600	0.707300
C591	C59	0.984900	0.640000	0.618700
C601	C60	0.936600	0.581100	0.576800
H271	H27	0.882000	0.588400	0.538600
C611	C61	0.969800	0.511400	0.592100
C621	C62	0.052700	0.501700	0.644700
H281	H28	0.075800	0.455000	0.651600
C631	C63	0.947200	0.715600	0.606200
C641	C64	0.918800	0.445500	0.555600
Zn51	Zn5	0.940500	0.862280	0.635490
O331	O33	0.903100	0.902690	0.518800
O341	O34	0.773600	0.859090	0.495400
O351	O35	0.489500	0.734390	0.150300
O361	O36	0.378300	0.775200	0.050800
O371	O37	0.341300	0.040400	0.005000
H291	H29	0.314100	0.078500	0.993700
O381	O38	0.446500	0.116100	0.072800
O391	O39	0.864200	0.096080	0.191500
O401	O40	0.956400	0.077000	0.323400
C651	C65	0.825500	0.894800	0.472600
C661	C66	0.798500	0.931800	0.385900
C671	C67	0.718400	0.918000	0.327900
H301	H30	0.682600	0.885300	0.342600
C681	C68	0.690800	0.953000	0.246700
C691	C69	0.746400	0.002500	0.225900
H311	H31	0.729800	0.026000	0.172500
C701	C70	0.826300	0.015800	0.285700
C711	C71	0.851200	0.981200	0.365800
H321	H32	0.903900	0.991500	0.406000
C721	C72	0.887200	0.066800	0.264700
C731	C73	0.602600	0.940700	0.187400
C741	C74	0.566200	0.871500	0.176000
H331	H33	0.596700	0.832400	0.207300
C751	C75	0.484900	0.860000	0.118700
C761	C76	0.436600	0.918900	0.076800
H341	H34	0.382000	0.911600	0.038600
C771	C77	0.469800	0.988600	0.092100
C781	C78	0.552700	0.998300	0.144700
H351	H35	0.575800	0.045000	0.151600
C791	C79	0.447200	0.784400	0.106200
C801	C80	0.418800	0.054500	0.055600
Zn61	Zn6	0.440500	0.362280	0.635490
O411	O41	0.403100	0.402690	0.518800
O421	O42	0.273600	0.359090	0.495400
O431	O43	0.989500	0.234390	0.150300
O441	O44	0.878300	0.275200	0.050800
O451	O45	0.841300	0.540400	0.005000
H361	H36	0.814100	0.578500	0.993700
O461	O46	0.946500	0.616100	0.072800
O471	O47	0.364200	0.596080	0.191500
O481	O48	0.456400	0.577000	0.323400
C811	C81	0.325500	0.394800	0.472600
C821	C82	0.298500	0.431800	0.385900
C831	C83	0.218400	0.418000	0.327900
H371	H37	0.182600	0.385300	0.342600
C841	C84	0.190800	0.453000	0.246700
C851	C85	0.246400	0.502500	0.225900
H381	H38	0.229800	0.526000	0.172500
C861	C86	0.326300	0.515800	0.285700
C871	C87	0.351200	0.481200	0.365800
H391	H39	0.403900	0.491500	0.406000
C881	C88	0.387200	0.566800	0.264700
C891	C89	0.102600	0.440700	0.187400
C901	C90	0.066200	0.371500	0.176000
H401	H40	0.096700	0.332400	0.207300
C911	C91	0.984900	0.360000	0.118700
C921	C92	0.936600	0.418900	0.076800
H411	H41	0.882000	0.411600	0.038600
C931	C93	0.969800	0.488600	0.092100
C941	C94	0.052700	0.498300	0.144700
H421	H42	0.075800	0.545000	0.151600
C951	C95	0.947200	0.284400	0.106200
C961	C96	0.918800	0.554500	0.055600
Zn71	Zn7	0.059500	0.862280	0.864510
O491	O49	0.096900	0.902690	0.981200
O501	O50	0.226400	0.859090	0.004600
O511	O51	0.510500	0.734390	0.349700
O521	O52	0.621700	0.775200	0.449200
O531	O53	0.658700	0.040400	0.495000
H431	H43	0.685900	0.078500	0.506300
O541	O54	0.553500	0.116100	0.427200
O551	O55	0.135800	0.096080	0.308500
O561	O56	0.043600	0.077000	0.176600
C971	C97	0.174500	0.894800	0.027400
C981	C98	0.201500	0.931800	0.114100
C991	C99	0.281600	0.918000	0.172100
H441	H44	0.317400	0.885300	0.157400
C1001	C100	0.309200	0.953000	0.253300
C1011	C101	0.253600	0.002500	0.274100
H451	H45	0.270200	0.026000	0.327500
C1021	C102	0.173700	0.015800	0.214300
C1031	C103	0.148800	0.981200	0.134200
H461	H46	0.096100	0.991500	0.094000
C1041	C104	0.112800	0.066800	0.235300
C1051	C105	0.397400	0.940700	0.312600
C1061	C106	0.433800	0.871500	0.324000
H471	H47	0.403300	0.832400	0.292700
C1071	C107	0.515100	0.860000	0.381300
C1081	C108	0.563400	0.918900	0.423200
H481	H48	0.618000	0.911600	0.461400
C1091	C109	0.530200	0.988600	0.407900
C1101	C110	0.447300	0.998300	0.355300
H491	H49	0.424200	0.045000	0.348400
C1111	C111	0.552800	0.784400	0.393800
C1121	C112	0.581200	0.054500	0.444400
Zn81	Zn8	0.559500	0.362280	0.864510
O571	O57	0.596900	0.402690	0.981200
O581	O58	0.726400	0.359090	0.004600
O591	O59	0.010500	0.234390	0.349700
O601	O60	0.121700	0.275200	0.449200
O611	O61	0.158700	0.540400	0.495000
H501	H50	0.185900	0.578500	0.506300
O621	O62	0.053500	0.616100	0.427200
O631	O63	0.635800	0.596080	0.308500
O641	O64	0.543600	0.577000	0.176600
C1131	C113	0.674500	0.394800	0.027400
C1141	C114	0.701500	0.431800	0.114100
C1151	C115	0.781600	0.418000	0.172100
H511	H51	0.817400	0.385300	0.157400
C1161	C116	0.809200	0.453000	0.253300
C1171	C117	0.753600	0.502500	0.274100
H521	H52	0.770200	0.526000	0.327500
C1181	C118	0.673700	0.515800	0.214300
C1191	C119	0.648800	0.481200	0.134200
H531	H53	0.596100	0.491500	0.094000
C1201	C120	0.612800	0.566800	0.235300
C1211	C121	0.897400	0.440700	0.312600
C1221	C122	0.933800	0.371500	0.324000
H541	H54	0.903300	0.332400	0.292700
C1231	C123	0.015100	0.360000	0.381300
C1241	C124	0.063400	0.418900	0.423200
H551	H55	0.118000	0.411600	0.461400
C1251	C125	0.030200	0.488600	0.407900
C1261	C126	0.947300	0.498300	0.355300
H561	H56	0.924200	0.545000	0.348400
C1271	C127	0.052800	0.284400	0.393800
C1281	C128	0.081200	0.554500	0.444400
Zn91	Zn9	0.250000	0.250000	0.500000
Zn101	Zn10	0.750000	0.250000	0.000000
Zn111	Zn11	0.750000	0.750000	0.500000
Zn121	Zn12	0.250000	0.750000	0.000000
