data_YUDFIO_clean_PM
_symmetry_space_group_name_H-M	'P1'
_cell_length_a	25.179000
_cell_length_b	14.747000
_cell_length_c	26.053000
_cell_angle_alpha	90.000000
_cell_angle_beta	94.964000
_cell_angle_gamma	90.000000
_symmetry_Int_Tables_number 1

loop_
_symmetry_equiv_pos_as_xyz
'x,y,z'

loop_
_atom_site_label
_atom_site_type_symbol
_atom_site_fract_x
_atom_site_fract_y
_atom_site_fract_z
Gd11	Gd1	0.850250	0.245710	0.007080
C11	C1	0.841800	0.041300	0.069900
C21	C2	0.824100	0.007500	0.120500
C31	C3	0.794800	0.061000	0.150300
H11	H1	0.784100	0.118300	0.138700
C41	C4	0.781100	0.030600	0.197600
C51	C5	0.795200	0.944400	0.217300
C61	C6	0.824400	0.892200	0.185000
C71	C7	0.838800	0.920900	0.138100
H21	H2	0.858200	0.883000	0.118200
C81	C8	0.781600	0.915000	0.269700
C91	C9	0.817900	0.923600	0.312900
C101	C10	0.808000	0.892900	0.361600
H31	H3	0.833900	0.898000	0.389100
C111	C11	0.758800	0.854800	0.368500
C121	C12	0.721600	0.846600	0.327300
H41	H4	0.688200	0.822500	0.331900
C131	C13	0.733500	0.874300	0.278700
C141	C14	0.866900	0.325600	0.885700
C151	C15	0.906600	0.318800	0.845500
C161	C16	0.947500	0.256600	0.850700
H51	H5	0.951400	0.219000	0.879400
C171	C17	0.982600	0.250200	0.813100
C181	C18	0.979700	0.304000	0.769600
C191	C19	0.937700	0.366200	0.765500
C201	C20	0.901100	0.372900	0.803000
H61	H6	0.873100	0.414200	0.798800
C211	C21	0.745600	0.822800	0.421600
N11	N1	0.751400	0.091300	0.228100
N21	N2	0.839800	0.798900	0.199900
N31	N3	0.869600	0.965900	0.308700
N41	N4	0.693100	0.855000	0.236200
N51	N5	0.928200	0.425100	0.720900
N61	N6	0.025600	0.183000	0.821900
O11	O1	0.821500	0.114000	0.053310
O21	O2	0.876600	0.996300	0.050310
O31	O3	0.765000	0.170400	0.229600
O41	O4	0.842400	0.778700	0.245300
O51	O5	0.850900	0.747200	0.166100
O61	O6	0.706400	0.858400	0.192200
O71	O7	0.649100	0.830900	0.246330
O81	O8	0.872700	0.027900	0.277500
O91	O9	0.907600	0.938300	0.336400
O101	O10	0.879400	0.281500	0.926710
O111	O11	0.826700	0.371500	0.875990
O121	O12	0.036100	0.156200	0.865700
O131	O13	0.049100	0.157700	0.785650
O141	O14	0.903100	0.491900	0.724900
O151	O15	0.943100	0.398900	0.680200
O161	O16	0.699300	0.796200	0.424880
O171	O17	0.782490	0.823600	0.456730
O181	O18	0.714400	0.060800	0.250400
Gd21	Gd2	0.350250	0.745710	0.007080
C221	C22	0.341800	0.541300	0.069900
C231	C23	0.324100	0.507500	0.120500
C241	C24	0.294800	0.561000	0.150300
H71	H7	0.284100	0.618300	0.138700
C251	C25	0.281100	0.530600	0.197600
C261	C26	0.295200	0.444400	0.217300
C271	C27	0.324400	0.392200	0.185000
C281	C28	0.338800	0.420900	0.138100
H81	H8	0.358200	0.383000	0.118200
C291	C29	0.281600	0.415000	0.269700
C301	C30	0.317900	0.423600	0.312900
C311	C31	0.308000	0.392900	0.361600
H91	H9	0.333900	0.398000	0.389100
C321	C32	0.258800	0.354800	0.368500
C331	C33	0.221600	0.346600	0.327300
H101	H10	0.188200	0.322500	0.331900
C341	C34	0.233500	0.374300	0.278700
C351	C35	0.366900	0.825600	0.885700
C361	C36	0.406600	0.818800	0.845500
C371	C37	0.447500	0.756600	0.850700
H111	H11	0.451400	0.719000	0.879400
C381	C38	0.482600	0.750200	0.813100
C391	C39	0.479700	0.804000	0.769600
C401	C40	0.437700	0.866200	0.765500
C411	C41	0.401100	0.872900	0.803000
H121	H12	0.373100	0.914200	0.798800
C421	C42	0.245600	0.322800	0.421600
N71	N7	0.251400	0.591300	0.228100
N81	N8	0.339800	0.298900	0.199900
N91	N9	0.369600	0.465900	0.308700
N101	N10	0.193100	0.355000	0.236200
N111	N11	0.428200	0.925100	0.720900
N121	N12	0.525600	0.683000	0.821900
O191	O19	0.321500	0.614000	0.053310
O201	O20	0.376600	0.496300	0.050310
O211	O21	0.265000	0.670400	0.229600
O221	O22	0.342400	0.278700	0.245300
O231	O23	0.350900	0.247200	0.166100
O241	O24	0.206400	0.358400	0.192200
O251	O25	0.149100	0.330900	0.246330
O261	O26	0.372700	0.527900	0.277500
O271	O27	0.407600	0.438300	0.336400
O281	O28	0.379400	0.781500	0.926710
O291	O29	0.326700	0.871500	0.875990
O301	O30	0.536100	0.656200	0.865700
O311	O31	0.549100	0.657700	0.785650
O321	O32	0.403100	0.991900	0.724900
O331	O33	0.443100	0.898900	0.680200
O341	O34	0.199300	0.296200	0.424880
O351	O35	0.282490	0.323600	0.456730
O361	O36	0.214400	0.560800	0.250400
Gd31	Gd3	0.149750	0.245710	0.492920
C431	C43	0.158200	0.041300	0.430100
C441	C44	0.175900	0.007500	0.379500
C451	C45	0.205200	0.061000	0.349700
H131	H13	0.215900	0.118300	0.361300
C461	C46	0.218900	0.030600	0.302400
C471	C47	0.204800	0.944400	0.282700
C481	C48	0.175600	0.892200	0.315000
C491	C49	0.161200	0.920900	0.361900
H141	H14	0.141800	0.883000	0.381800
C501	C50	0.218400	0.915000	0.230300
C511	C51	0.182100	0.923600	0.187100
C521	C52	0.192000	0.892900	0.138400
H151	H15	0.166100	0.898000	0.110900
C531	C53	0.241200	0.854800	0.131500
C541	C54	0.278400	0.846600	0.172700
H161	H16	0.311800	0.822500	0.168100
C551	C55	0.266500	0.874300	0.221300
C561	C56	0.133100	0.325600	0.614300
C571	C57	0.093400	0.318800	0.654500
C581	C58	0.052500	0.256600	0.649300
H171	H17	0.048600	0.219000	0.620600
C591	C59	0.017400	0.250200	0.686900
C601	C60	0.020300	0.304000	0.730400
C611	C61	0.062300	0.366200	0.734500
C621	C62	0.098900	0.372900	0.697000
H181	H18	0.126900	0.414200	0.701200
C631	C63	0.254400	0.822800	0.078400
N131	N13	0.248600	0.091300	0.271900
N141	N14	0.160200	0.798900	0.300100
N151	N15	0.130400	0.965900	0.191300
N161	N16	0.306900	0.855000	0.263800
N171	N17	0.071800	0.425100	0.779100
N181	N18	0.974400	0.183000	0.678100
O371	O37	0.178500	0.114000	0.446690
O381	O38	0.123400	0.996300	0.449690
O391	O39	0.235000	0.170400	0.270400
O401	O40	0.157600	0.778700	0.254700
O411	O41	0.149100	0.747200	0.333900
O421	O42	0.293600	0.858400	0.307800
O431	O43	0.350900	0.830900	0.253670
O441	O44	0.127300	0.027900	0.222500
O451	O45	0.092400	0.938300	0.163600
O461	O46	0.120600	0.281500	0.573290
O471	O47	0.173300	0.371500	0.624010
O481	O48	0.963900	0.156200	0.634300
O491	O49	0.950900	0.157700	0.714350
O501	O50	0.096900	0.491900	0.775100
O511	O51	0.056900	0.398900	0.819800
O521	O52	0.300700	0.796200	0.075120
O531	O53	0.217510	0.823600	0.043270
O541	O54	0.285600	0.060800	0.249600
Gd41	Gd4	0.649750	0.745710	0.492920
C641	C64	0.658200	0.541300	0.430100
C651	C65	0.675900	0.507500	0.379500
C661	C66	0.705200	0.561000	0.349700
H191	H19	0.715900	0.618300	0.361300
C671	C67	0.718900	0.530600	0.302400
C681	C68	0.704800	0.444400	0.282700
C691	C69	0.675600	0.392200	0.315000
C701	C70	0.661200	0.420900	0.361900
H201	H20	0.641800	0.383000	0.381800
C711	C71	0.718400	0.415000	0.230300
C721	C72	0.682100	0.423600	0.187100
C731	C73	0.692000	0.392900	0.138400
H211	H21	0.666100	0.398000	0.110900
C741	C74	0.741200	0.354800	0.131500
C751	C75	0.778400	0.346600	0.172700
H221	H22	0.811800	0.322500	0.168100
C761	C76	0.766500	0.374300	0.221300
C771	C77	0.633100	0.825600	0.614300
C781	C78	0.593400	0.818800	0.654500
C791	C79	0.552500	0.756600	0.649300
H231	H23	0.548600	0.719000	0.620600
C801	C80	0.517400	0.750200	0.686900
C811	C81	0.520300	0.804000	0.730400
C821	C82	0.562300	0.866200	0.734500
C831	C83	0.598900	0.872900	0.697000
H241	H24	0.626900	0.914200	0.701200
C841	C84	0.754400	0.322800	0.078400
N191	N19	0.748600	0.591300	0.271900
N201	N20	0.660200	0.298900	0.300100
N211	N21	0.630400	0.465900	0.191300
N221	N22	0.806900	0.355000	0.263800
N231	N23	0.571800	0.925100	0.779100
N241	N24	0.474400	0.683000	0.678100
O551	O55	0.678500	0.614000	0.446690
O561	O56	0.623400	0.496300	0.449690
O571	O57	0.735000	0.670400	0.270400
O581	O58	0.657600	0.278700	0.254700
O591	O59	0.649100	0.247200	0.333900
O601	O60	0.793600	0.358400	0.307800
O611	O61	0.850900	0.330900	0.253670
O621	O62	0.627300	0.527900	0.222500
O631	O63	0.592400	0.438300	0.163600
O641	O64	0.620600	0.781500	0.573290
O651	O65	0.673300	0.871500	0.624010
O661	O66	0.463900	0.656200	0.634300
O671	O67	0.450900	0.657700	0.714350
O681	O68	0.596900	0.991900	0.775100
O691	O69	0.556900	0.898900	0.819800
O701	O70	0.800700	0.296200	0.075120
O711	O71	0.717510	0.323600	0.043270
O721	O72	0.785600	0.560800	0.249600
Gd51	Gd5	0.149750	0.754290	0.992920
C851	C85	0.158200	0.958700	0.930100
C861	C86	0.175900	0.992500	0.879500
C871	C87	0.205200	0.939000	0.849700
H251	H25	0.215900	0.881700	0.861300
C881	C88	0.218900	0.969400	0.802400
C891	C89	0.204800	0.055600	0.782700
C901	C90	0.175600	0.107800	0.815000
C911	C91	0.161200	0.079100	0.861900
H261	H26	0.141800	0.117000	0.881800
C921	C92	0.218400	0.085000	0.730300
C931	C93	0.182100	0.076400	0.687100
C941	C94	0.192000	0.107100	0.638400
H271	H27	0.166100	0.102000	0.610900
C951	C95	0.241200	0.145200	0.631500
C961	C96	0.278400	0.153400	0.672700
H281	H28	0.311800	0.177500	0.668100
C971	C97	0.266500	0.125700	0.721300
C981	C98	0.133100	0.674400	0.114300
C991	C99	0.093400	0.681200	0.154500
C1001	C100	0.052500	0.743400	0.149300
H291	H29	0.048600	0.781000	0.120600
C1011	C101	0.017400	0.749800	0.186900
C1021	C102	0.020300	0.696000	0.230400
C1031	C103	0.062300	0.633800	0.234500
C1041	C104	0.098900	0.627100	0.197000
H301	H30	0.126900	0.585800	0.201200
C1051	C105	0.254400	0.177200	0.578400
N251	N25	0.248600	0.908700	0.771900
N261	N26	0.160200	0.201100	0.800100
N271	N27	0.130400	0.034100	0.691300
N281	N28	0.306900	0.145000	0.763800
N291	N29	0.071800	0.574900	0.279100
N301	N30	0.974400	0.817000	0.178100
O731	O73	0.178500	0.886000	0.946690
O741	O74	0.123400	0.003700	0.949690
O751	O75	0.235000	0.829600	0.770400
O761	O76	0.157600	0.221300	0.754700
O771	O77	0.149100	0.252800	0.833900
O781	O78	0.293600	0.141600	0.807800
O791	O79	0.350900	0.169100	0.753670
O801	O80	0.127300	0.972100	0.722500
O811	O81	0.092400	0.061700	0.663600
O821	O82	0.120600	0.718500	0.073290
O831	O83	0.173300	0.628500	0.124010
O841	O84	0.963900	0.843800	0.134300
O851	O85	0.950900	0.842300	0.214350
O861	O86	0.096900	0.508100	0.275100
O871	O87	0.056900	0.601100	0.319800
O881	O88	0.300700	0.203800	0.575120
O891	O89	0.217510	0.176400	0.543270
O901	O90	0.285600	0.939200	0.749600
Gd61	Gd6	0.649750	0.254290	0.992920
C1061	C106	0.658200	0.458700	0.930100
C1071	C107	0.675900	0.492500	0.879500
C1081	C108	0.705200	0.439000	0.849700
H311	H31	0.715900	0.381700	0.861300
C1091	C109	0.718900	0.469400	0.802400
C1101	C110	0.704800	0.555600	0.782700
C1111	C111	0.675600	0.607800	0.815000
C1121	C112	0.661200	0.579100	0.861900
H321	H32	0.641800	0.617000	0.881800
C1131	C113	0.718400	0.585000	0.730300
C1141	C114	0.682100	0.576400	0.687100
C1151	C115	0.692000	0.607100	0.638400
H331	H33	0.666100	0.602000	0.610900
C1161	C116	0.741200	0.645200	0.631500
C1171	C117	0.778400	0.653400	0.672700
H341	H34	0.811800	0.677500	0.668100
C1181	C118	0.766500	0.625700	0.721300
C1191	C119	0.633100	0.174400	0.114300
C1201	C120	0.593400	0.181200	0.154500
C1211	C121	0.552500	0.243400	0.149300
H351	H35	0.548600	0.281000	0.120600
C1221	C122	0.517400	0.249800	0.186900
C1231	C123	0.520300	0.196000	0.230400
C1241	C124	0.562300	0.133800	0.234500
C1251	C125	0.598900	0.127100	0.197000
H361	H36	0.626900	0.085800	0.201200
C1261	C126	0.754400	0.677200	0.578400
N311	N31	0.748600	0.408700	0.771900
N321	N32	0.660200	0.701100	0.800100
N331	N33	0.630400	0.534100	0.691300
N341	N34	0.806900	0.645000	0.763800
N351	N35	0.571800	0.074900	0.279100
N361	N36	0.474400	0.317000	0.178100
O911	O91	0.678500	0.386000	0.946690
O921	O92	0.623400	0.503700	0.949690
O931	O93	0.735000	0.329600	0.770400
O941	O94	0.657600	0.721300	0.754700
O951	O95	0.649100	0.752800	0.833900
O961	O96	0.793600	0.641600	0.807800
O971	O97	0.850900	0.669100	0.753670
O981	O98	0.627300	0.472100	0.722500
O991	O99	0.592400	0.561700	0.663600
O1001	O100	0.620600	0.218500	0.073290
O1011	O101	0.673300	0.128500	0.124010
O1021	O102	0.463900	0.343800	0.134300
O1031	O103	0.450900	0.342300	0.214350
O1041	O104	0.596900	0.008100	0.275100
O1051	O105	0.556900	0.101100	0.319800
O1061	O106	0.800700	0.703800	0.575120
O1071	O107	0.717510	0.676400	0.543270
O1081	O108	0.785600	0.439200	0.749600
Gd71	Gd7	0.850250	0.754290	0.507080
C1271	C127	0.841800	0.958700	0.569900
C1281	C128	0.824100	0.992500	0.620500
C1291	C129	0.794800	0.939000	0.650300
H371	H37	0.784100	0.881700	0.638700
C1301	C130	0.781100	0.969400	0.697600
C1311	C131	0.795200	0.055600	0.717300
C1321	C132	0.824400	0.107800	0.685000
C1331	C133	0.838800	0.079100	0.638100
H381	H38	0.858200	0.117000	0.618200
C1341	C134	0.781600	0.085000	0.769700
C1351	C135	0.817900	0.076400	0.812900
C1361	C136	0.808000	0.107100	0.861600
H391	H39	0.833900	0.102000	0.889100
C1371	C137	0.758800	0.145200	0.868500
C1381	C138	0.721600	0.153400	0.827300
H401	H40	0.688200	0.177500	0.831900
C1391	C139	0.733500	0.125700	0.778700
C1401	C140	0.866900	0.674400	0.385700
C1411	C141	0.906600	0.681200	0.345500
C1421	C142	0.947500	0.743400	0.350700
H411	H41	0.951400	0.781000	0.379400
C1431	C143	0.982600	0.749800	0.313100
C1441	C144	0.979700	0.696000	0.269600
C1451	C145	0.937700	0.633800	0.265500
C1461	C146	0.901100	0.627100	0.303000
H421	H42	0.873100	0.585800	0.298800
C1471	C147	0.745600	0.177200	0.921600
N371	N37	0.751400	0.908700	0.728100
N381	N38	0.839800	0.201100	0.699900
N391	N39	0.869600	0.034100	0.808700
N401	N40	0.693100	0.145000	0.736200
N411	N41	0.928200	0.574900	0.220900
N421	N42	0.025600	0.817000	0.321900
O1091	O109	0.821500	0.886000	0.553310
O1101	O110	0.876600	0.003700	0.550310
O1111	O111	0.765000	0.829600	0.729600
O1121	O112	0.842400	0.221300	0.745300
O1131	O113	0.850900	0.252800	0.666100
O1141	O114	0.706400	0.141600	0.692200
O1151	O115	0.649100	0.169100	0.746330
O1161	O116	0.872700	0.972100	0.777500
O1171	O117	0.907600	0.061700	0.836400
O1181	O118	0.879400	0.718500	0.426710
O1191	O119	0.826700	0.628500	0.375990
O1201	O120	0.036100	0.843800	0.365700
O1211	O121	0.049100	0.842300	0.285650
O1221	O122	0.903100	0.508100	0.224900
O1231	O123	0.943100	0.601100	0.180200
O1241	O124	0.699300	0.203800	0.924880
O1251	O125	0.782490	0.176400	0.956730
O1261	O126	0.714400	0.939200	0.750400
Gd81	Gd8	0.350250	0.254290	0.507080
C1481	C148	0.341800	0.458700	0.569900
C1491	C149	0.324100	0.492500	0.620500
C1501	C150	0.294800	0.439000	0.650300
H431	H43	0.284100	0.381700	0.638700
C1511	C151	0.281100	0.469400	0.697600
C1521	C152	0.295200	0.555600	0.717300
C1531	C153	0.324400	0.607800	0.685000
C1541	C154	0.338800	0.579100	0.638100
H441	H44	0.358200	0.617000	0.618200
C1551	C155	0.281600	0.585000	0.769700
C1561	C156	0.317900	0.576400	0.812900
C1571	C157	0.308000	0.607100	0.861600
H451	H45	0.333900	0.602000	0.889100
C1581	C158	0.258800	0.645200	0.868500
C1591	C159	0.221600	0.653400	0.827300
H461	H46	0.188200	0.677500	0.831900
C1601	C160	0.233500	0.625700	0.778700
C1611	C161	0.366900	0.174400	0.385700
C1621	C162	0.406600	0.181200	0.345500
C1631	C163	0.447500	0.243400	0.350700
H471	H47	0.451400	0.281000	0.379400
C1641	C164	0.482600	0.249800	0.313100
C1651	C165	0.479700	0.196000	0.269600
C1661	C166	0.437700	0.133800	0.265500
C1671	C167	0.401100	0.127100	0.303000
H481	H48	0.373100	0.085800	0.298800
C1681	C168	0.245600	0.677200	0.921600
N431	N43	0.251400	0.408700	0.728100
N441	N44	0.339800	0.701100	0.699900
N451	N45	0.369600	0.534100	0.808700
N461	N46	0.193100	0.645000	0.736200
N471	N47	0.428200	0.074900	0.220900
N481	N48	0.525600	0.317000	0.321900
O1271	O127	0.321500	0.386000	0.553310
O1281	O128	0.376600	0.503700	0.550310
O1291	O129	0.265000	0.329600	0.729600
O1301	O130	0.342400	0.721300	0.745300
O1311	O131	0.350900	0.752800	0.666100
O1321	O132	0.206400	0.641600	0.692200
O1331	O133	0.149100	0.669100	0.746330
O1341	O134	0.372700	0.472100	0.777500
O1351	O135	0.407600	0.561700	0.836400
O1361	O136	0.379400	0.218500	0.426710
O1371	O137	0.326700	0.128500	0.375990
O1381	O138	0.536100	0.343800	0.365700
O1391	O139	0.549100	0.342300	0.285650
O1401	O140	0.403100	0.008100	0.224900
O1411	O141	0.443100	0.101100	0.180200
O1421	O142	0.199300	0.703800	0.924880
O1431	O143	0.282490	0.676400	0.956730
O1441	O144	0.214400	0.439200	0.750400
