data_YUFLIW_clean_PM
_symmetry_space_group_name_H-M	'P1'
_cell_length_a	11.993000
_cell_length_b	19.632000
_cell_length_c	18.143000
_cell_angle_alpha	90.000000
_cell_angle_beta	102.060000
_cell_angle_gamma	90.000000
_symmetry_Int_Tables_number 1

loop_
_symmetry_equiv_pos_as_xyz
'x,y,z'

loop_
_atom_site_label
_atom_site_type_symbol
_atom_site_fract_x
_atom_site_fract_y
_atom_site_fract_z
Mg11	Mg1	0.843750	0.854710	0.730740
O11	O1	0.918400	0.917910	0.816310
O21	O2	0.107600	0.910740	0.852570
O31	O3	0.209600	0.988400	0.962600
H11	H1	0.205700	0.967500	0.923000
O41	O4	0.793600	0.799790	0.814700
O51	O5	0.946100	0.740480	0.870220
O61	O6	0.954200	0.685770	0.998720
H21	H2	0.975300	0.694100	0.959500
C11	C1	0.011100	0.928480	0.861880
C21	C2	0.005300	0.966050	0.933010
C31	C3	0.104200	0.992550	0.978700
C41	C4	0.900700	0.973180	0.955220
C51	C5	0.849900	0.767120	0.869020
C61	C6	0.799300	0.758260	0.937590
C71	C7	0.851400	0.716440	0.997000
C81	C8	0.698600	0.791930	0.941230
H31	H3	0.990000	0.773000	0.788000
O71	O7	0.798300	0.953600	0.914100
H41	H4	0.807400	0.933700	0.876100
O81	O8	0.658100	0.837900	0.892700
H51	H5	0.700100	0.842300	0.862700
Mg21	Mg2	0.343750	0.354710	0.730740
O91	O9	0.418400	0.417910	0.816310
O101	O10	0.607600	0.410740	0.852570
O111	O11	0.709600	0.488400	0.962600
H61	H6	0.705700	0.467500	0.923000
O121	O12	0.293600	0.299790	0.814700
O131	O13	0.446100	0.240480	0.870220
O141	O14	0.454200	0.185770	0.998720
H71	H7	0.475300	0.194100	0.959500
C91	C9	0.511100	0.428480	0.861880
C101	C10	0.505300	0.466050	0.933010
C111	C11	0.604200	0.492550	0.978700
C121	C12	0.400700	0.473180	0.955220
C131	C13	0.349900	0.267120	0.869020
C141	C14	0.299300	0.258260	0.937590
C151	C15	0.351400	0.216440	0.997000
C161	C16	0.198600	0.291930	0.941230
H81	H8	0.490000	0.273000	0.788000
O151	O15	0.298300	0.453600	0.914100
H91	H9	0.307400	0.433700	0.876100
O161	O16	0.158100	0.337900	0.892700
H101	H10	0.200100	0.342300	0.862700
Mg31	Mg3	0.156250	0.854710	0.769260
O171	O17	0.081600	0.917910	0.683690
O181	O18	0.892400	0.910740	0.647430
O191	O19	0.790400	0.988400	0.537400
H111	H11	0.794300	0.967500	0.577000
O201	O20	0.206400	0.799790	0.685300
O211	O21	0.053900	0.740480	0.629780
O221	O22	0.045800	0.685770	0.501280
H121	H12	0.024700	0.694100	0.540500
C171	C17	0.988900	0.928480	0.638120
C181	C18	0.994700	0.966050	0.566990
C191	C19	0.895800	0.992550	0.521300
C201	C20	0.099300	0.973180	0.544780
C211	C21	0.150100	0.767120	0.630980
C221	C22	0.200700	0.758260	0.562410
C231	C23	0.148600	0.716440	0.503000
C241	C24	0.301400	0.791930	0.558770
H131	H13	0.010000	0.773000	0.712000
O231	O23	0.201700	0.953600	0.585900
H141	H14	0.192600	0.933700	0.623900
O241	O24	0.341900	0.837900	0.607300
H151	H15	0.299900	0.842300	0.637300
Mg41	Mg4	0.656250	0.354710	0.769260
O251	O25	0.581600	0.417910	0.683690
O261	O26	0.392400	0.410740	0.647430
O271	O27	0.290400	0.488400	0.537400
H161	H16	0.294300	0.467500	0.577000
O281	O28	0.706400	0.299790	0.685300
O291	O29	0.553900	0.240480	0.629780
O301	O30	0.545800	0.185770	0.501280
H171	H17	0.524700	0.194100	0.540500
C251	C25	0.488900	0.428480	0.638120
C261	C26	0.494700	0.466050	0.566990
C271	C27	0.395800	0.492550	0.521300
C281	C28	0.599300	0.473180	0.544780
C291	C29	0.650100	0.267120	0.630980
C301	C30	0.700700	0.258260	0.562410
C311	C31	0.648600	0.216440	0.503000
C321	C32	0.801400	0.291930	0.558770
H181	H18	0.510000	0.273000	0.712000
O311	O31	0.701700	0.453600	0.585900
H191	H19	0.692600	0.433700	0.623900
O321	O32	0.841900	0.337900	0.607300
H201	H20	0.799900	0.342300	0.637300
Mg51	Mg5	0.156250	0.145290	0.269260
O331	O33	0.081600	0.082090	0.183690
O341	O34	0.892400	0.089260	0.147430
O351	O35	0.790400	0.011600	0.037400
H211	H21	0.794300	0.032500	0.077000
O361	O36	0.206400	0.200210	0.185300
O371	O37	0.053900	0.259520	0.129780
O381	O38	0.045800	0.314230	0.001280
H221	H22	0.024700	0.305900	0.040500
C331	C33	0.988900	0.071520	0.138120
C341	C34	0.994700	0.033950	0.066990
C351	C35	0.895800	0.007450	0.021300
C361	C36	0.099300	0.026820	0.044780
C371	C37	0.150100	0.232880	0.130980
C381	C38	0.200700	0.241740	0.062410
C391	C39	0.148600	0.283560	0.003000
C401	C40	0.301400	0.208070	0.058770
H231	H23	0.010000	0.227000	0.212000
O391	O39	0.201700	0.046400	0.085900
H241	H24	0.192600	0.066300	0.123900
O401	O40	0.341900	0.162100	0.107300
H251	H25	0.299900	0.157700	0.137300
Mg61	Mg6	0.656250	0.645290	0.269260
O411	O41	0.581600	0.582090	0.183690
O421	O42	0.392400	0.589260	0.147430
O431	O43	0.290400	0.511600	0.037400
H261	H26	0.294300	0.532500	0.077000
O441	O44	0.706400	0.700210	0.185300
O451	O45	0.553900	0.759520	0.129780
O461	O46	0.545800	0.814230	0.001280
H271	H27	0.524700	0.805900	0.040500
C411	C41	0.488900	0.571520	0.138120
C421	C42	0.494700	0.533950	0.066990
C431	C43	0.395800	0.507450	0.021300
C441	C44	0.599300	0.526820	0.044780
C451	C45	0.650100	0.732880	0.130980
C461	C46	0.700700	0.741740	0.062410
C471	C47	0.648600	0.783560	0.003000
C481	C48	0.801400	0.708070	0.058770
H281	H28	0.510000	0.727000	0.212000
O471	O47	0.701700	0.546400	0.085900
H291	H29	0.692600	0.566300	0.123900
O481	O48	0.841900	0.662100	0.107300
H301	H30	0.799900	0.657700	0.137300
Mg71	Mg7	0.843750	0.145290	0.230740
O491	O49	0.918400	0.082090	0.316310
O501	O50	0.107600	0.089260	0.352570
O511	O51	0.209600	0.011600	0.462600
H311	H31	0.205700	0.032500	0.423000
O521	O52	0.793600	0.200210	0.314700
O531	O53	0.946100	0.259520	0.370220
O541	O54	0.954200	0.314230	0.498720
H321	H32	0.975300	0.305900	0.459500
C491	C49	0.011100	0.071520	0.361880
C501	C50	0.005300	0.033950	0.433010
C511	C51	0.104200	0.007450	0.478700
C521	C52	0.900700	0.026820	0.455220
C531	C53	0.849900	0.232880	0.369020
C541	C54	0.799300	0.241740	0.437590
C551	C55	0.851400	0.283560	0.497000
C561	C56	0.698600	0.208070	0.441230
H331	H33	0.990000	0.227000	0.288000
O551	O55	0.798300	0.046400	0.414100
H341	H34	0.807400	0.066300	0.376100
O561	O56	0.658100	0.162100	0.392700
H351	H35	0.700100	0.157700	0.362700
Mg81	Mg8	0.343750	0.645290	0.230740
O571	O57	0.418400	0.582090	0.316310
O581	O58	0.607600	0.589260	0.352570
O591	O59	0.709600	0.511600	0.462600
H361	H36	0.705700	0.532500	0.423000
O601	O60	0.293600	0.700210	0.314700
O611	O61	0.446100	0.759520	0.370220
O621	O62	0.454200	0.814230	0.498720
H371	H37	0.475300	0.805900	0.459500
C571	C57	0.511100	0.571520	0.361880
C581	C58	0.505300	0.533950	0.433010
C591	C59	0.604200	0.507450	0.478700
C601	C60	0.400700	0.526820	0.455220
C611	C61	0.349900	0.732880	0.369020
C621	C62	0.299300	0.741740	0.437590
C631	C63	0.351400	0.783560	0.497000
C641	C64	0.198600	0.708070	0.441230
H381	H38	0.490000	0.727000	0.288000
O631	O63	0.298300	0.546400	0.414100
H391	H39	0.307400	0.566300	0.376100
O641	O64	0.158100	0.662100	0.392700
H401	H40	0.200100	0.657700	0.362700
O651	O65	0.000000	0.797540	0.750000
O661	O66	0.500000	0.297540	0.750000
O671	O67	0.000000	0.202460	0.250000
O681	O68	0.500000	0.702460	0.250000
