data_YUJCOX_clean_PM
_symmetry_space_group_name_H-M	'P1'
_cell_length_a	7.437400
_cell_length_b	16.428300
_cell_length_c	14.553000
_cell_angle_alpha	90.000000
_cell_angle_beta	94.837000
_cell_angle_gamma	90.000000
_symmetry_Int_Tables_number 1

loop_
_symmetry_equiv_pos_as_xyz
'x,y,z'

loop_
_atom_site_label
_atom_site_type_symbol
_atom_site_fract_x
_atom_site_fract_y
_atom_site_fract_z
Zn11	Zn1	0.192180	0.127910	0.479740
Zn21	Zn2	0.222440	0.018270	0.681210
O11	O1	0.246900	0.017470	0.546360
O21	O2	0.603900	0.095230	0.582100
O31	O3	0.425600	0.449590	0.733980
O41	O4	0.018600	0.105470	0.684260
O51	O5	0.525000	0.413220	0.873230
O61	O6	0.902000	0.414850	0.898110
O71	O7	0.075800	0.429630	0.783390
O81	O8	0.378700	0.185200	0.563300
C11	C1	0.832300	0.340200	0.761100
O91	O9	0.969400	0.158240	0.543500
C21	C2	0.945800	0.400220	0.818600
C31	C3	0.946200	0.153970	0.627500
C41	C4	0.643200	0.345010	0.745500
C51	C5	0.831000	0.219220	0.666200
C61	C6	0.534700	0.163360	0.593500
C71	C7	0.554000	0.288560	0.688000
H11	H1	0.429900	0.293300	0.675100
C81	C8	0.922300	0.277510	0.719700
H21	H2	0.047500	0.274900	0.728500
C91	C9	0.643900	0.224810	0.648900
C101	C10	0.527700	0.407190	0.787100
Zn31	Zn3	0.307820	0.627910	0.020260
Zn41	Zn4	0.277560	0.518270	0.818790
O101	O10	0.253100	0.517470	0.953640
O111	O11	0.896100	0.595230	0.917900
O121	O12	0.074400	0.949590	0.766020
O131	O13	0.481400	0.605470	0.815740
O141	O14	0.975000	0.913220	0.626770
O151	O15	0.598000	0.914850	0.601890
O161	O16	0.424200	0.929630	0.716610
O171	O17	0.121300	0.685200	0.936700
C111	C11	0.667700	0.840200	0.738900
O181	O18	0.530600	0.658240	0.956500
C121	C12	0.554200	0.900220	0.681400
C131	C13	0.553800	0.653970	0.872500
C141	C14	0.856800	0.845010	0.754500
C151	C15	0.669000	0.719220	0.833800
C161	C16	0.965300	0.663360	0.906500
C171	C17	0.946000	0.788560	0.812000
H31	H3	0.070100	0.793300	0.824900
C181	C18	0.577700	0.777510	0.780300
H41	H4	0.452500	0.774900	0.771500
C191	C19	0.856100	0.724810	0.851100
C201	C20	0.972300	0.907190	0.712900
Zn51	Zn5	0.807820	0.872090	0.520260
Zn61	Zn6	0.777560	0.981730	0.318790
O191	O19	0.753100	0.982530	0.453640
O201	O20	0.396100	0.904770	0.417900
O211	O21	0.574400	0.550410	0.266020
O221	O22	0.981400	0.894530	0.315740
O231	O23	0.475000	0.586780	0.126770
O241	O24	0.098000	0.585150	0.101890
O251	O25	0.924200	0.570370	0.216610
O261	O26	0.621300	0.814800	0.436700
C211	C21	0.167700	0.659800	0.238900
O271	O27	0.030600	0.841760	0.456500
C221	C22	0.054200	0.599780	0.181400
C231	C23	0.053800	0.846030	0.372500
C241	C24	0.356800	0.654990	0.254500
C251	C25	0.169000	0.780780	0.333800
C261	C26	0.465300	0.836640	0.406500
C271	C27	0.446000	0.711440	0.312000
H51	H5	0.570100	0.706700	0.324900
C281	C28	0.077700	0.722490	0.280300
H61	H6	0.952500	0.725100	0.271500
C291	C29	0.356100	0.775190	0.351100
C301	C30	0.472300	0.592810	0.212900
Zn71	Zn7	0.692180	0.372090	0.979740
Zn81	Zn8	0.722440	0.481730	0.181210
O281	O28	0.746900	0.482530	0.046360
O291	O29	0.103900	0.404770	0.082100
O301	O30	0.925600	0.050410	0.233980
O311	O31	0.518600	0.394530	0.184260
O321	O32	0.025000	0.086780	0.373230
O331	O33	0.402000	0.085150	0.398110
O341	O34	0.575800	0.070370	0.283390
O351	O35	0.878700	0.314800	0.063300
C311	C31	0.332300	0.159800	0.261100
O361	O36	0.469400	0.341760	0.043500
C321	C32	0.445800	0.099780	0.318600
C331	C33	0.446200	0.346030	0.127500
C341	C34	0.143200	0.154990	0.245500
C351	C35	0.331000	0.280780	0.166200
C361	C36	0.034700	0.336640	0.093500
C371	C37	0.054000	0.211440	0.188000
H71	H7	0.929900	0.206700	0.175100
C381	C38	0.422300	0.222490	0.219700
H81	H8	0.547500	0.225100	0.228500
C391	C39	0.143900	0.275190	0.148900
C401	C40	0.027700	0.092810	0.287100
Zn91	Zn9	0.500000	0.000000	0.500000
Zn101	Zn10	0.000000	0.500000	0.000000
