data_YUJNOH_clean_PM
_symmetry_space_group_name_H-M	'P1'
_cell_length_a	8.860100
_cell_length_b	12.985400
_cell_length_c	12.985400
_cell_angle_alpha	90.000000
_cell_angle_beta	90.000000
_cell_angle_gamma	90.000000
_symmetry_Int_Tables_number 1

loop_
_symmetry_equiv_pos_as_xyz
'x,y,z'

loop_
_atom_site_label
_atom_site_type_symbol
_atom_site_fract_x
_atom_site_fract_y
_atom_site_fract_z
Sr11	Sr1	0.713590	0.048830	0.944940
Sr21	Sr2	0.713590	0.451170	0.555060
Sr31	Sr3	0.713590	0.555060	0.048830
Sr41	Sr4	0.713590	0.944940	0.451170
Sr51	Sr5	0.286410	0.951170	0.055060
Sr61	Sr6	0.286410	0.548830	0.444940
Sr71	Sr7	0.286410	0.444940	0.951170
Sr81	Sr8	0.286410	0.055060	0.548830
C11	C1	0.623400	0.991500	0.196200
C21	C2	0.792100	0.991110	0.196430
C31	C3	0.623400	0.508500	0.303800
C41	C4	0.792100	0.508890	0.303570
C51	C5	0.623400	0.303800	0.991500
C61	C6	0.792100	0.303570	0.991110
C71	C7	0.623400	0.196200	0.508500
C81	C8	0.792100	0.196430	0.508890
C91	C9	0.376600	0.008500	0.803800
C101	C10	0.207900	0.008890	0.803570
C111	C11	0.376600	0.491500	0.696200
C121	C12	0.207900	0.491110	0.696430
C131	C13	0.376600	0.696200	0.008500
C141	C14	0.207900	0.696430	0.008890
C151	C15	0.376600	0.803800	0.491500
C161	C16	0.207900	0.803570	0.491110
N11	N1	0.876700	0.997800	0.112060
N21	N2	0.874200	0.981860	0.281080
N31	N3	0.018500	0.992410	0.147320
N41	N4	0.017700	0.982960	0.247780
N51	N5	0.876700	0.502200	0.387940
N61	N6	0.874200	0.518140	0.218920
N71	N7	0.018500	0.507590	0.352680
N81	N8	0.017700	0.517040	0.252220
N91	N9	0.876700	0.387940	0.997800
N101	N10	0.874200	0.218920	0.981860
N111	N11	0.018500	0.352680	0.992410
N121	N12	0.017700	0.252220	0.982960
N131	N13	0.876700	0.112060	0.502200
N141	N14	0.874200	0.281080	0.518140
N151	N15	0.018500	0.147320	0.507590
N161	N16	0.017700	0.247780	0.517040
N171	N17	0.123300	0.002200	0.887940
N181	N18	0.125800	0.018140	0.718920
N191	N19	0.981500	0.007590	0.852680
N201	N20	0.982300	0.017040	0.752220
N211	N21	0.123300	0.497800	0.612060
N221	N22	0.125800	0.481860	0.781080
N231	N23	0.981500	0.492410	0.647320
N241	N24	0.982300	0.482960	0.747780
N251	N25	0.123300	0.612060	0.002200
N261	N26	0.125800	0.781080	0.018140
N271	N27	0.981500	0.647320	0.007590
N281	N28	0.982300	0.747780	0.017040
N291	N29	0.123300	0.887940	0.497800
N301	N30	0.125800	0.718920	0.481860
N311	N31	0.981500	0.852680	0.492410
N321	N32	0.982300	0.752220	0.482960
O11	O1	0.558480	0.998720	0.110470
O21	O2	0.560140	0.983860	0.282230
O31	O3	0.558480	0.501280	0.389530
O41	O4	0.560140	0.516140	0.217770
O51	O5	0.558480	0.389530	0.998720
O61	O6	0.560140	0.217770	0.983860
O71	O7	0.558480	0.110470	0.501280
O81	O8	0.560140	0.282230	0.516140
O91	O9	0.441520	0.001280	0.889530
O101	O10	0.439860	0.016140	0.717770
O111	O11	0.441520	0.498720	0.610470
O121	O12	0.439860	0.483860	0.782230
O131	O13	0.441520	0.610470	0.001280
O141	O14	0.439860	0.782230	0.016140
O151	O15	0.441520	0.889530	0.498720
O161	O16	0.439860	0.717770	0.483860
