data_YUJNIB_clean_PM
_symmetry_space_group_name_H-M	'P1'
_cell_length_a	9.273200
_cell_length_b	17.509000
_cell_length_c	18.428500
_cell_angle_alpha	106.031000
_cell_angle_beta	90.000000
_cell_angle_gamma	90.000000
_symmetry_Int_Tables_number 1

loop_
_symmetry_equiv_pos_as_xyz
'x,y,z'

loop_
_atom_site_label
_atom_site_type_symbol
_atom_site_fract_x
_atom_site_fract_y
_atom_site_fract_z
Sr11	Sr1	0.337100	0.866930	0.674820
Sr21	Sr2	0.841240	0.622330	0.823800
Sr31	Sr3	0.504780	0.588180	0.673430
Sr41	Sr4	0.502480	0.075720	0.663260
Sr51	Sr5	0.837100	0.133070	0.825180
Sr61	Sr6	0.341240	0.377670	0.676200
Sr71	Sr7	0.004780	0.411820	0.826570
Sr81	Sr8	0.002480	0.924280	0.836740
Sr91	Sr9	0.662900	0.133070	0.325180
Sr101	Sr10	0.158760	0.377670	0.176200
Sr111	Sr11	0.495220	0.411820	0.326570
Sr121	Sr12	0.497520	0.924280	0.336740
Sr131	Sr13	0.162900	0.866930	0.174820
Sr141	Sr14	0.658760	0.622330	0.323800
Sr151	Sr15	0.995220	0.588180	0.173430
Sr161	Sr16	0.997520	0.075720	0.163260
H11	H1	0.008100	0.913900	0.665400
H21	H2	0.013400	0.843300	0.679300
H31	H3	0.333400	0.949500	0.832200
H41	H4	0.320100	0.852500	0.834600
H51	H5	0.499500	0.657200	0.854400
H61	H6	0.548800	0.587400	0.844500
H71	H7	0.848400	0.568700	0.650400
H81	H8	0.816200	0.645000	0.667200
H91	H9	0.508100	0.086100	0.834600
H101	H10	0.513400	0.156700	0.820700
H111	H11	0.833400	0.050500	0.667800
H121	H12	0.820100	0.147500	0.665400
H131	H13	0.999500	0.342800	0.645600
H141	H14	0.048800	0.412600	0.655500
H151	H15	0.348400	0.431300	0.849600
H161	H16	0.316200	0.355000	0.832800
H171	H17	0.991900	0.086100	0.334600
H181	H18	0.986600	0.156700	0.320700
H191	H19	0.666600	0.050500	0.167800
H201	H20	0.679900	0.147500	0.165400
H211	H21	0.500500	0.342800	0.145600
H221	H22	0.451200	0.412600	0.155500
H231	H23	0.151600	0.431300	0.349600
H241	H24	0.183800	0.355000	0.332800
H251	H25	0.491900	0.913900	0.165400
H261	H26	0.486600	0.843300	0.179300
H271	H27	0.166600	0.949500	0.332200
H281	H28	0.179900	0.852500	0.334600
H291	H29	0.000500	0.657200	0.354400
H301	H30	0.951200	0.587400	0.344500
H311	H31	0.651600	0.568700	0.150400
H321	H32	0.683800	0.645000	0.167200
C11	C1	0.669850	0.855790	0.758880
C21	C2	0.674870	0.936220	0.744140
C31	C3	0.174510	0.645690	0.760160
C41	C4	0.185640	0.565040	0.769080
C51	C5	0.583440	0.643140	0.509620
C61	C6	0.626610	0.558160	0.486330
C71	C7	0.236920	0.846470	0.487180
C81	C8	0.323570	0.924250	0.509580
C91	C9	0.169850	0.144210	0.741120
C101	C10	0.174870	0.063780	0.755860
C111	C11	0.674510	0.354310	0.739840
C121	C12	0.685640	0.434960	0.730920
C131	C13	0.083440	0.356860	0.990380
C141	C14	0.126610	0.441840	0.013670
C151	C15	0.736920	0.153530	0.012820
C161	C16	0.823570	0.075750	0.990420
C171	C17	0.330150	0.144210	0.241120
C181	C18	0.325130	0.063780	0.255860
C191	C19	0.825490	0.354310	0.239840
C201	C20	0.814360	0.434960	0.230920
C211	C21	0.416560	0.356860	0.490380
C221	C22	0.373390	0.441840	0.513670
C231	C23	0.763080	0.153530	0.512820
C241	C24	0.676430	0.075750	0.490420
C251	C25	0.830150	0.855790	0.258880
C261	C26	0.825130	0.936220	0.244140
C271	C27	0.325490	0.645690	0.260160
C281	C28	0.314360	0.565040	0.269080
C291	C29	0.916560	0.643140	0.009620
C301	C30	0.873390	0.558160	0.986330
C311	C31	0.263080	0.846470	0.987180
C321	C32	0.176430	0.924250	0.009580
N11	N1	0.557930	0.806390	0.737600
N21	N2	0.595830	0.741780	0.758510
N31	N3	0.726120	0.754080	0.791510
N41	N4	0.773870	0.826480	0.792460
N51	N5	0.265930	0.675410	0.720630
N61	N6	0.218090	0.750070	0.726620
N71	N7	0.103350	0.762950	0.770450
N81	N8	0.071350	0.698270	0.792030
N91	N9	0.524500	0.678960	0.575940
N101	N10	0.506110	0.754370	0.573470
N111	N11	0.554980	0.762680	0.509540
N121	N12	0.605100	0.692230	0.467480
N131	N13	0.206900	0.806870	0.536230
N141	N14	0.129430	0.743530	0.496590
N151	N15	0.114460	0.748030	0.426960
N161	N16	0.182300	0.813370	0.420320
N171	N17	0.057930	0.193610	0.762400
N181	N18	0.095830	0.258220	0.741490
N191	N19	0.226120	0.245920	0.708490
N201	N20	0.273870	0.173520	0.707540
N211	N21	0.765930	0.324590	0.779370
N221	N22	0.718090	0.249930	0.773380
N231	N23	0.603350	0.237050	0.729550
N241	N24	0.571350	0.301730	0.707970
N251	N25	0.024500	0.321040	0.924060
N261	N26	0.006110	0.245630	0.926530
N271	N27	0.054980	0.237320	0.990460
N281	N28	0.105100	0.307770	0.032520
N291	N29	0.706900	0.193130	0.963770
N301	N30	0.629430	0.256470	0.003410
N311	N31	0.614460	0.251970	0.073040
N321	N32	0.682300	0.186630	0.079680
N331	N33	0.442070	0.193610	0.262400
N341	N34	0.404170	0.258220	0.241490
N351	N35	0.273880	0.245920	0.208490
N361	N36	0.226130	0.173520	0.207540
N371	N37	0.734070	0.324590	0.279370
N381	N38	0.781910	0.249930	0.273380
N391	N39	0.896650	0.237050	0.229550
N401	N40	0.928650	0.301730	0.207970
N411	N41	0.475500	0.321040	0.424060
N421	N42	0.493890	0.245630	0.426530
N431	N43	0.445020	0.237320	0.490460
N441	N44	0.394900	0.307770	0.532520
N451	N45	0.793100	0.193130	0.463770
N461	N46	0.870570	0.256470	0.503410
N471	N47	0.885540	0.251970	0.573040
N481	N48	0.817700	0.186630	0.579680
N491	N49	0.942070	0.806390	0.237600
N501	N50	0.904170	0.741780	0.258510
N511	N51	0.773880	0.754080	0.291510
N521	N52	0.726130	0.826480	0.292460
N531	N53	0.234070	0.675410	0.220630
N541	N54	0.281910	0.750070	0.226620
N551	N55	0.396650	0.762950	0.270450
N561	N56	0.428650	0.698270	0.292030
N571	N57	0.975500	0.678960	0.075940
N581	N58	0.993890	0.754370	0.073470
N591	N59	0.945020	0.762680	0.009540
N601	N60	0.894900	0.692230	0.967480
N611	N61	0.293100	0.806870	0.036230
N621	N62	0.370570	0.743530	0.996590
N631	N63	0.385540	0.748030	0.926960
N641	N64	0.317700	0.813370	0.920320
O11	O1	0.575500	0.952700	0.704900
O21	O2	0.779200	0.980200	0.774900
O31	O3	0.293400	0.524600	0.741400
O41	O4	0.082000	0.541900	0.802700
O51	O5	0.636300	0.523500	0.536600
O61	O6	0.651200	0.528100	0.416600
O71	O7	0.371400	0.944900	0.575600
O81	O8	0.337800	0.959600	0.459700
O91	O9	0.047890	0.881340	0.689570
O101	O10	0.288220	0.907650	0.817660
O111	O11	0.561160	0.615580	0.826720
O121	O12	0.795270	0.609650	0.681950
O131	O13	0.075500	0.047300	0.795100
O141	O14	0.279200	0.019800	0.725100
O151	O15	0.793400	0.475400	0.758600
O161	O16	0.582000	0.458100	0.697300
O171	O17	0.136300	0.476500	0.963400
O181	O18	0.151200	0.471900	0.083400
O191	O19	0.871400	0.055100	0.924400
O201	O20	0.837800	0.040400	0.040300
O211	O21	0.547890	0.118660	0.810430
O221	O22	0.788220	0.092350	0.682340
O231	O23	0.061160	0.384420	0.673280
O241	O24	0.295270	0.390350	0.818050
O251	O25	0.424500	0.047300	0.295100
O261	O26	0.220800	0.019800	0.225100
O271	O27	0.706600	0.475400	0.258600
O281	O28	0.918000	0.458100	0.197300
O291	O29	0.363700	0.476500	0.463400
O301	O30	0.348800	0.471900	0.583400
O311	O31	0.628600	0.055100	0.424400
O321	O32	0.662200	0.040400	0.540300
O331	O33	0.952110	0.118660	0.310430
O341	O34	0.711780	0.092350	0.182340
O351	O35	0.438840	0.384420	0.173280
O361	O36	0.204730	0.390350	0.318050
O371	O37	0.924500	0.952700	0.204900
O381	O38	0.720800	0.980200	0.274900
O391	O39	0.206600	0.524600	0.241400
O401	O40	0.418000	0.541900	0.302700
O411	O41	0.863700	0.523500	0.036600
O421	O42	0.848800	0.528100	0.916600
O431	O43	0.128600	0.944900	0.075600
O441	O44	0.162200	0.959600	0.959700
O451	O45	0.452110	0.881340	0.189570
O461	O46	0.211780	0.907650	0.317660
O471	O47	0.938840	0.615580	0.326720
O481	O48	0.704730	0.609650	0.181950
