data_YUKCAJ_clean_PM
_symmetry_space_group_name_H-M	'P1'
_cell_length_a	13.083600
_cell_length_b	13.083600
_cell_length_c	8.091600
_cell_angle_alpha	90.000000
_cell_angle_beta	90.000000
_cell_angle_gamma	90.000000
_symmetry_Int_Tables_number 1

loop_
_symmetry_equiv_pos_as_xyz
'x,y,z'

loop_
_atom_site_label
_atom_site_type_symbol
_atom_site_fract_x
_atom_site_fract_y
_atom_site_fract_z
N11	N1	0.169300	0.160000	0.592100
N21	N2	0.015300	0.034500	0.061600
C11	C1	0.115100	0.203800	0.473000
H11	H1	0.104000	0.273900	0.477900
C21	C2	0.074200	0.149500	0.341000
H21	H2	0.036600	0.183400	0.260300
C31	C3	0.088600	0.048400	0.330000
C41	C4	0.139700	0.002500	0.460000
H31	H3	0.147000	0.931800	0.462200
C51	C5	0.178800	0.059000	0.584200
H41	H4	0.214200	0.025300	0.668100
C61	C6	0.049600	0.990500	0.190000
H51	H5	0.049600	0.919400	0.195300
N31	N3	0.330700	0.340000	0.592100
N41	N4	0.484700	0.465500	0.061600
C71	C7	0.384900	0.296200	0.473000
H61	H6	0.396000	0.226100	0.477900
C81	C8	0.425800	0.350500	0.341000
H71	H7	0.463400	0.316600	0.260300
C91	C9	0.411400	0.451600	0.330000
C101	C10	0.360300	0.497500	0.460000
H81	H8	0.353000	0.568200	0.462200
C111	C11	0.321200	0.441000	0.584200
H91	H9	0.285800	0.474700	0.668100
C121	C12	0.450400	0.509500	0.190000
H101	H10	0.450400	0.580600	0.195300
N51	N5	0.840000	0.669300	0.092100
N61	N6	0.965500	0.515300	0.561600
C131	C13	0.796200	0.615100	0.973000
H111	H11	0.726100	0.604000	0.977900
C141	C14	0.850500	0.574200	0.841000
H121	H12	0.816600	0.536600	0.760300
C151	C15	0.951600	0.588600	0.830000
C161	C16	0.997500	0.639700	0.960000
H131	H13	0.068200	0.647000	0.962200
C171	C17	0.941000	0.678800	0.084200
H141	H14	0.974700	0.714200	0.168100
C181	C18	0.009500	0.549600	0.690000
H151	H15	0.080600	0.549600	0.695300
N71	N7	0.660000	0.830700	0.092100
N81	N8	0.534500	0.984700	0.561600
C191	C19	0.703800	0.884900	0.973000
H161	H16	0.773900	0.896000	0.977900
C201	C20	0.649500	0.925800	0.841000
H171	H17	0.683400	0.963400	0.760300
C211	C21	0.548400	0.911400	0.830000
C221	C22	0.502500	0.860300	0.960000
H181	H18	0.431800	0.853000	0.962200
C231	C23	0.559000	0.821200	0.084200
H191	H19	0.525300	0.785800	0.168100
C241	C24	0.490500	0.950400	0.690000
H201	H20	0.419400	0.950400	0.695300
N91	N9	0.830700	0.840000	0.407900
N101	N10	0.984700	0.965500	0.938400
C251	C25	0.884900	0.796200	0.527000
H211	H21	0.896000	0.726100	0.522100
C261	C26	0.925800	0.850500	0.659000
H221	H22	0.963400	0.816600	0.739700
C271	C27	0.911400	0.951600	0.670000
C281	C28	0.860300	0.997500	0.540000
H231	H23	0.853000	0.068200	0.537800
C291	C29	0.821200	0.941000	0.415800
H241	H24	0.785800	0.974700	0.331900
C301	C30	0.950400	0.009500	0.810000
H251	H25	0.950400	0.080600	0.804700
N111	N11	0.669300	0.660000	0.407900
N121	N12	0.515300	0.534500	0.938400
C311	C31	0.615100	0.703800	0.527000
H261	H26	0.604000	0.773900	0.522100
C321	C32	0.574200	0.649500	0.659000
H271	H27	0.536600	0.683400	0.739700
C331	C33	0.588600	0.548400	0.670000
C341	C34	0.639700	0.502500	0.540000
H281	H28	0.647000	0.431800	0.537800
C351	C35	0.678800	0.559000	0.415800
H291	H29	0.714200	0.525300	0.331900
C361	C36	0.549600	0.490500	0.810000
H301	H30	0.549600	0.419400	0.804700
N131	N13	0.160000	0.330700	0.907900
N141	N14	0.034500	0.484700	0.438400
C371	C37	0.203800	0.384900	0.027000
H311	H31	0.273900	0.396000	0.022100
C381	C38	0.149500	0.425800	0.159000
H321	H32	0.183400	0.463400	0.239700
C391	C39	0.048400	0.411400	0.170000
C401	C40	0.002500	0.360300	0.040000
H331	H33	0.931800	0.353000	0.037800
C411	C41	0.059000	0.321200	0.915800
H341	H34	0.025300	0.285800	0.831900
C421	C42	0.990500	0.450400	0.310000
H351	H35	0.919400	0.450400	0.304700
N151	N15	0.340000	0.169300	0.907900
N161	N16	0.465500	0.015300	0.438400
C431	C43	0.296200	0.115100	0.027000
H361	H36	0.226100	0.104000	0.022100
C441	C44	0.350500	0.074200	0.159000
H371	H37	0.316600	0.036600	0.239700
C451	C45	0.451600	0.088600	0.170000
C461	C46	0.497500	0.139700	0.040000
H381	H38	0.568200	0.147000	0.037800
C471	C47	0.441000	0.178800	0.915800
H391	H39	0.474700	0.214200	0.831900
C481	C48	0.509500	0.049600	0.310000
H401	H40	0.580600	0.049600	0.304700
Cu11	Cu1	0.250000	0.250000	0.750000
Cu21	Cu2	0.750000	0.750000	0.250000
