data_YUKTUU_clean_PM
_symmetry_space_group_name_H-M	'P1'
_cell_length_a	8.521100
_cell_length_b	11.977900
_cell_length_c	9.059300
_cell_angle_alpha	90.000000
_cell_angle_beta	90.000000
_cell_angle_gamma	90.000000
_symmetry_Int_Tables_number 1

loop_
_symmetry_equiv_pos_as_xyz
'x,y,z'

loop_
_atom_site_label
_atom_site_type_symbol
_atom_site_fract_x
_atom_site_fract_y
_atom_site_fract_z
O11	O1	0.256850	0.407460	0.371530
O21	O2	0.404340	0.179490	0.416320
O31	O3	0.557420	0.191350	0.612270
C11	C1	0.519800	0.216540	0.484930
H11	H1	0.583300	0.267700	0.435900
O41	O4	0.243150	0.592540	0.371530
O51	O5	0.095660	0.820510	0.416320
O61	O6	0.942580	0.808650	0.612270
C21	C2	0.980200	0.783460	0.484930
H21	H2	0.916700	0.732300	0.435900
O71	O7	0.243150	0.907460	0.128470
O81	O8	0.095660	0.679490	0.083680
O91	O9	0.942580	0.691350	0.887730
C31	C3	0.980200	0.716540	0.015070
H31	H3	0.916700	0.767700	0.064100
O101	O10	0.256850	0.092540	0.128470
O111	O11	0.404340	0.320510	0.083680
O121	O12	0.557420	0.308650	0.887730
C41	C4	0.519800	0.283460	0.015070
H41	H4	0.583300	0.232300	0.064100
O131	O13	0.743150	0.592540	0.628470
O141	O14	0.595660	0.820510	0.583680
O151	O15	0.442580	0.808650	0.387730
C51	C5	0.480200	0.783460	0.515070
H51	H5	0.416700	0.732300	0.564100
O161	O16	0.756850	0.407460	0.628470
O171	O17	0.904340	0.179490	0.583680
O181	O18	0.057420	0.191350	0.387730
C61	C6	0.019800	0.216540	0.515070
H61	H6	0.083300	0.267700	0.564100
O191	O19	0.756850	0.092540	0.871530
O201	O20	0.904340	0.320510	0.916320
O211	O21	0.057420	0.308650	0.112270
C71	C7	0.019800	0.283460	0.984930
H71	H7	0.083300	0.232300	0.935900
O221	O22	0.743150	0.907460	0.871530
O231	O23	0.595660	0.679490	0.916320
O241	O24	0.442580	0.691350	0.112270
C81	C8	0.480200	0.716540	0.984930
H81	H8	0.416700	0.767700	0.935900
Mn11	Mn1	0.251920	0.250000	0.250000
Mn21	Mn2	0.248080	0.750000	0.250000
Mn31	Mn3	0.748080	0.750000	0.750000
Mn41	Mn4	0.751920	0.250000	0.750000
C91	C9	0.250000	0.500000	0.310800
H91	H9	0.250000	0.500000	0.208200
C101	C10	0.250000	0.000000	0.189200
H101	H10	0.250000	0.000000	0.291800
C111	C11	0.750000	0.500000	0.689200
H111	H11	0.750000	0.500000	0.791800
C121	C12	0.750000	0.000000	0.810800
H121	H12	0.750000	0.000000	0.708200
