data_YUKVUW_clean_PM
_symmetry_space_group_name_H-M	'P1'
_cell_length_a	8.349300
_cell_length_b	11.727600
_cell_length_c	8.908900
_cell_angle_alpha	90.000000
_cell_angle_beta	90.000000
_cell_angle_gamma	90.000000
_symmetry_Int_Tables_number 1

loop_
_symmetry_equiv_pos_as_xyz
'x,y,z'

loop_
_atom_site_label
_atom_site_type_symbol
_atom_site_fract_x
_atom_site_fract_y
_atom_site_fract_z
O11	O1	0.257610	0.405840	0.364510
O21	O2	0.406720	0.182090	0.413590
O31	O3	0.563790	0.192340	0.612540
C11	C1	0.522600	0.221780	0.483900
H11	H1	0.583300	0.277800	0.436700
O41	O4	0.242390	0.594160	0.364510
O51	O5	0.093280	0.817910	0.413590
O61	O6	0.936210	0.807660	0.612540
C21	C2	0.977400	0.778220	0.483900
H21	H2	0.916700	0.722200	0.436700
O71	O7	0.242390	0.905840	0.135490
O81	O8	0.093280	0.682090	0.086410
O91	O9	0.936210	0.692340	0.887460
C31	C3	0.977400	0.721780	0.016100
H31	H3	0.916700	0.777800	0.063300
O101	O10	0.257610	0.094160	0.135490
O111	O11	0.406720	0.317910	0.086410
O121	O12	0.563790	0.307660	0.887460
C41	C4	0.522600	0.278220	0.016100
H41	H4	0.583300	0.222200	0.063300
O131	O13	0.742390	0.594160	0.635490
O141	O14	0.593280	0.817910	0.586410
O151	O15	0.436210	0.807660	0.387460
C51	C5	0.477400	0.778220	0.516100
H51	H5	0.416700	0.722200	0.563300
O161	O16	0.757610	0.405840	0.635490
O171	O17	0.906720	0.182090	0.586410
O181	O18	0.063790	0.192340	0.387460
C61	C6	0.022600	0.221780	0.516100
H61	H6	0.083300	0.277800	0.563300
O191	O19	0.757610	0.094160	0.864510
O201	O20	0.906720	0.317910	0.913590
O211	O21	0.063790	0.307660	0.112540
C71	C7	0.022600	0.278220	0.983900
H71	H7	0.083300	0.222200	0.936700
O221	O22	0.742390	0.905840	0.864510
O231	O23	0.593280	0.682090	0.913590
O241	O24	0.436210	0.692340	0.112540
C81	C8	0.477400	0.721780	0.983900
H81	H8	0.416700	0.777800	0.936700
Zn11	Zn1	0.255650	0.250000	0.250000
Zn21	Zn2	0.244350	0.750000	0.250000
Zn31	Zn3	0.744350	0.750000	0.750000
Zn41	Zn4	0.755650	0.250000	0.750000
C91	C9	0.250000	0.500000	0.301900
H91	H9	0.250000	0.500000	0.197500
C101	C10	0.250000	0.000000	0.198100
H101	H10	0.250000	0.000000	0.302500
C111	C11	0.750000	0.500000	0.698100
H111	H11	0.750000	0.500000	0.802500
C121	C12	0.750000	0.000000	0.801900
H121	H12	0.750000	0.000000	0.697500
