data_YUKVEG_clean_PM
_symmetry_space_group_name_H-M	'P1'
_cell_length_a	8.334300
_cell_length_b	11.753000
_cell_length_c	8.911100
_cell_angle_alpha	90.000000
_cell_angle_beta	90.000000
_cell_angle_gamma	90.000000
_symmetry_Int_Tables_number 1

loop_
_symmetry_equiv_pos_as_xyz
'x,y,z'

loop_
_atom_site_label
_atom_site_type_symbol
_atom_site_fract_x
_atom_site_fract_y
_atom_site_fract_z
O11	O1	0.256710	0.405660	0.365550
O21	O2	0.406880	0.182730	0.413320
O31	O3	0.564600	0.192270	0.611900
C11	C1	0.523400	0.222250	0.483500
H11	H1	0.584100	0.278300	0.436600
O41	O4	0.243290	0.594340	0.365550
O51	O5	0.093120	0.817270	0.413320
O61	O6	0.935400	0.807730	0.611900
C21	C2	0.976600	0.777750	0.483500
H21	H2	0.915900	0.721700	0.436600
O71	O7	0.243290	0.905660	0.134450
O81	O8	0.093120	0.682730	0.086680
O91	O9	0.935400	0.692270	0.888100
C31	C3	0.976600	0.722250	0.016500
H31	H3	0.915900	0.778300	0.063400
O101	O10	0.256710	0.094340	0.134450
O111	O11	0.406880	0.317270	0.086680
O121	O12	0.564600	0.307730	0.888100
C41	C4	0.523400	0.277750	0.016500
H41	H4	0.584100	0.221700	0.063400
O131	O13	0.743290	0.594340	0.634450
O141	O14	0.593120	0.817270	0.586680
O151	O15	0.435400	0.807730	0.388100
C51	C5	0.476600	0.777750	0.516500
H51	H5	0.415900	0.721700	0.563400
O161	O16	0.756710	0.405660	0.634450
O171	O17	0.906880	0.182730	0.586680
O181	O18	0.064600	0.192270	0.388100
C61	C6	0.023400	0.222250	0.516500
H61	H6	0.084100	0.278300	0.563400
O191	O19	0.756710	0.094340	0.865550
O201	O20	0.906880	0.317270	0.913320
O211	O21	0.064600	0.307730	0.111900
C71	C7	0.023400	0.277750	0.983500
H71	H7	0.084100	0.221700	0.936600
O221	O22	0.743290	0.905660	0.865550
O231	O23	0.593120	0.682730	0.913320
O241	O24	0.435400	0.692270	0.111900
C81	C8	0.476600	0.722250	0.983500
H81	H8	0.415900	0.778300	0.936600
Co11	Co1	0.253710	0.250000	0.250000
Co21	Co2	0.246290	0.750000	0.250000
Co31	Co3	0.746290	0.750000	0.750000
Co41	Co4	0.753710	0.250000	0.750000
C91	C9	0.250000	0.500000	0.303000
H91	H9	0.250000	0.500000	0.198600
C101	C10	0.250000	0.000000	0.197000
H101	H10	0.250000	0.000000	0.301400
C111	C11	0.750000	0.500000	0.697000
H111	H11	0.750000	0.500000	0.801400
C121	C12	0.750000	0.000000	0.803000
H121	H12	0.750000	0.000000	0.698600
