data_YUKWOS_clean_PM
_symmetry_space_group_name_H-M	'P1'
_cell_length_a	10.015400
_cell_length_b	10.744800
_cell_length_c	10.974600
_cell_angle_alpha	80.363000
_cell_angle_beta	72.521000
_cell_angle_gamma	74.593000
_symmetry_Int_Tables_number 1

loop_
_symmetry_equiv_pos_as_xyz
'x,y,z'

loop_
_atom_site_label
_atom_site_type_symbol
_atom_site_fract_x
_atom_site_fract_y
_atom_site_fract_z
Pr11	Pr1	0.823130	0.304290	0.464640
Zn11	Zn1	0.707080	0.131970	0.884910
N11	N1	0.868400	0.197500	0.924700
N21	N2	0.523700	0.293400	0.932600
C11	C1	0.890300	0.147500	0.039700
C21	C2	0.780800	0.073000	0.123900
C31	C3	0.007500	0.161500	0.074600
C41	C4	0.104000	0.226400	0.986200
H11	H1	0.188000	0.226000	0.009000
C51	C5	0.079500	0.278000	0.869100
H21	H2	0.144000	0.319000	0.804000
C61	C6	0.960200	0.262200	0.842100
H31	H3	0.933000	0.299000	0.772000
C71	C7	0.442100	0.323200	0.049500
H41	H4	0.477000	0.274000	0.117000
C81	C8	0.319200	0.422200	0.068000
H51	H5	0.261000	0.440000	0.151000
C91	C9	0.278700	0.490800	0.961500
H61	H6	0.201000	0.555000	0.965000
C101	C10	0.362000	0.462100	0.839200
C111	C11	0.486200	0.363100	0.829600
C121	C12	0.313200	0.537300	0.725400
C131	C13	0.592500	0.330200	0.703400
C141	C14	0.939700	0.522400	0.560800
C151	C15	0.032800	0.113900	0.204700
O11	O1	0.688900	0.058200	0.073080
O21	O2	0.789100	0.030700	0.234090
O31	O3	0.976000	0.192800	0.287370
O41	O4	0.113600	0.005930	0.221650
O51	O5	0.704430	0.240440	0.705570
O61	O6	0.572400	0.394710	0.603000
O71	O7	0.333600	0.650090	0.692200
O81	O8	0.244200	0.489750	0.674700
O91	O9	0.836800	0.467500	0.594540
O101	O10	0.954500	0.608800	0.614780
Pr21	Pr2	0.176870	0.695710	0.535360
Zn21	Zn2	0.292920	0.868030	0.115090
N31	N3	0.131600	0.802500	0.075300
N41	N4	0.476300	0.706600	0.067400
C161	C16	0.109700	0.852500	0.960300
C171	C17	0.219200	0.927000	0.876100
C181	C18	0.992500	0.838500	0.925400
C191	C19	0.896000	0.773600	0.013800
H71	H7	0.812000	0.774000	0.991000
C201	C20	0.920500	0.722000	0.130900
H81	H8	0.856000	0.681000	0.196000
C211	C21	0.039800	0.737800	0.157900
H91	H9	0.067000	0.701000	0.228000
C221	C22	0.557900	0.676800	0.950500
H101	H10	0.523000	0.726000	0.883000
C231	C23	0.680800	0.577800	0.932000
H111	H11	0.739000	0.560000	0.849000
C241	C24	0.721300	0.509200	0.038500
H121	H12	0.799000	0.445000	0.035000
C251	C25	0.638000	0.537900	0.160800
C261	C26	0.513800	0.636900	0.170400
C271	C27	0.686800	0.462700	0.274600
C281	C28	0.407500	0.669800	0.296600
C291	C29	0.060300	0.477600	0.439200
C301	C30	0.967200	0.886100	0.795300
O111	O11	0.311100	0.941800	0.926920
O121	O12	0.210900	0.969300	0.765910
O131	O13	0.024000	0.807200	0.712630
O141	O14	0.886400	0.994070	0.778350
O151	O15	0.295570	0.759560	0.294430
O161	O16	0.427600	0.605290	0.397000
O171	O17	0.666400	0.349910	0.307800
O181	O18	0.755800	0.510250	0.325300
O191	O19	0.163200	0.532500	0.405460
O201	O20	0.045500	0.391200	0.385220
