data_YUKWUY_clean_PM
_symmetry_space_group_name_H-M	'P1'
_cell_length_a	10.021800
_cell_length_b	10.714500
_cell_length_c	10.987000
_cell_angle_alpha	80.478000
_cell_angle_beta	72.442000
_cell_angle_gamma	74.522000
_symmetry_Int_Tables_number 1

loop_
_symmetry_equiv_pos_as_xyz
'x,y,z'

loop_
_atom_site_label
_atom_site_type_symbol
_atom_site_fract_x
_atom_site_fract_y
_atom_site_fract_z
Nd11	Nd1	0.176190	0.195370	0.034860
Zn11	Zn1	0.292770	0.367850	0.615370
N11	N1	0.477300	0.205400	0.568400
N21	N2	0.132100	0.302200	0.575000
C11	C1	0.559800	0.175600	0.450900
H11	H1	0.534000	0.225000	0.380000
C21	C2	0.682800	0.076400	0.433200
H21	H2	0.739000	0.056000	0.352000
C31	C3	0.722800	0.007700	0.540300
H31	H3	0.804000	0.946000	0.531000
C41	C4	0.638500	0.037500	0.662600
C51	C5	0.514300	0.136500	0.671700
C61	C6	0.687400	0.962100	0.776500
C71	C7	0.406900	0.168900	0.797900
C81	C8	0.110100	0.352300	0.459600
C91	C9	0.992500	0.338100	0.425000
C101	C10	0.895500	0.273800	0.513400
H41	H4	0.810000	0.270000	0.493000
C111	C11	0.919000	0.222900	0.631100
H51	H5	0.854000	0.179000	0.694000
C121	C12	0.038800	0.238600	0.658100
H61	H6	0.062000	0.203000	0.731000
C131	C13	0.220600	0.425900	0.375300
C141	C14	0.968000	0.385400	0.294500
C151	C15	0.059800	0.977800	0.939200
O11	O1	0.755400	0.010600	0.828000
O21	O2	0.667400	0.848900	0.809600
O31	O3	0.426200	0.105100	0.898700
O41	O4	0.294000	0.259200	0.795100
O51	O5	0.312400	0.440800	0.426600
O61	O6	0.213100	0.468300	0.265200
O71	O7	0.025000	0.305500	0.211800
O81	O8	0.887900	0.493800	0.276700
O91	O9	0.163300	0.033500	0.904400
O101	O10	0.044500	0.891800	0.884500
Nd21	Nd2	0.823810	0.804630	0.965140
Zn21	Zn2	0.707230	0.632150	0.384630
N31	N3	0.522700	0.794600	0.431600
N41	N4	0.867900	0.697800	0.425000
C161	C16	0.440200	0.824400	0.549100
H71	H7	0.466000	0.775000	0.620000
C171	C17	0.317200	0.923600	0.566800
H81	H8	0.261000	0.944000	0.648000
C181	C18	0.277200	0.992300	0.459700
H91	H9	0.196000	0.054000	0.469000
C191	C19	0.361500	0.962500	0.337400
C201	C20	0.485700	0.863500	0.328300
C211	C21	0.312600	0.037900	0.223500
C221	C22	0.593100	0.831100	0.202100
C231	C23	0.889900	0.647700	0.540400
C241	C24	0.007500	0.661900	0.575000
C251	C25	0.104500	0.726200	0.486600
H101	H10	0.190000	0.730000	0.507000
C261	C26	0.081000	0.777100	0.368900
H111	H11	0.146000	0.821000	0.306000
C271	C27	0.961200	0.761400	0.341900
H121	H12	0.938000	0.797000	0.269000
C281	C28	0.779400	0.574100	0.624700
C291	C29	0.032000	0.614600	0.705500
C301	C30	0.940200	0.022200	0.060800
O111	O11	0.244600	0.989400	0.172000
O121	O12	0.332600	0.151100	0.190400
O131	O13	0.573800	0.894900	0.101300
O141	O14	0.706000	0.740800	0.204900
O151	O15	0.687600	0.559200	0.573400
O161	O16	0.786900	0.531700	0.734800
O171	O17	0.975000	0.694500	0.788200
O181	O18	0.112100	0.506200	0.723300
O191	O19	0.836700	0.966500	0.095600
O201	O20	0.955500	0.108200	0.115500
