data_YUKXAF_clean_PM
_symmetry_space_group_name_H-M	'P1'
_cell_length_a	10.013000
_cell_length_b	10.607000
_cell_length_c	10.993000
_cell_angle_alpha	80.746000
_cell_angle_beta	72.107000
_cell_angle_gamma	74.537000
_symmetry_Int_Tables_number 1

loop_
_symmetry_equiv_pos_as_xyz
'x,y,z'

loop_
_atom_site_label
_atom_site_type_symbol
_atom_site_fract_x
_atom_site_fract_y
_atom_site_fract_z
Ho11	Ho1	0.826330	0.306920	0.466280
Zn11	Zn1	0.708830	0.132280	0.882290
N11	N1	0.869800	0.197000	0.924900
N21	N2	0.521700	0.297000	0.928200
C11	C1	0.773200	0.077400	0.127100
C21	C2	0.888200	0.148700	0.042000
C31	C3	0.006200	0.161900	0.077500
C41	C4	0.108300	0.222800	0.987700
H11	H1	0.192000	0.229000	0.008000
C51	C5	0.087400	0.272300	0.868500
H21	H2	0.154000	0.314000	0.801000
C61	C6	0.966200	0.258500	0.840400
H31	H3	0.954000	0.287000	0.763000
C71	C7	0.027200	0.117100	0.210700
C81	C8	0.597200	0.331000	0.697100
C91	C9	0.485200	0.364400	0.823300
C101	C10	0.359400	0.463200	0.831300
C111	C11	0.271700	0.495100	0.953700
H41	H4	0.192000	0.571000	0.962000
C121	C12	0.311500	0.428500	0.062200
H51	H5	0.253000	0.451000	0.150000
C131	C13	0.437000	0.328500	0.045000
H61	H6	0.462000	0.285000	0.114000
C141	C14	0.311400	0.538300	0.715700
C151	C15	0.059200	0.479100	0.437300
O11	O1	0.683200	0.061700	0.074500
O21	O2	0.777900	0.036200	0.239000
O31	O3	0.969600	0.200900	0.291100
O41	O4	0.105700	0.006800	0.230500
O51	O5	0.711000	0.241400	0.701100
O61	O6	0.580500	0.394600	0.595200
O71	O7	0.329000	0.653900	0.684000
O81	O8	0.243700	0.489200	0.663200
O91	O9	0.042600	0.393400	0.381100
O101	O10	0.162000	0.536300	0.403000
Ho21	Ho2	0.173670	0.693080	0.533730
Zn21	Zn2	0.291170	0.867720	0.117710
N31	N3	0.130200	0.803000	0.075100
N41	N4	0.478300	0.703000	0.071800
C161	C16	0.226800	0.922600	0.872900
C171	C17	0.111800	0.851300	0.958000
C181	C18	0.993800	0.838100	0.922500
C191	C19	0.891700	0.777200	0.012300
H71	H7	0.808000	0.771000	0.992000
C201	C20	0.912600	0.727700	0.131500
H81	H8	0.846000	0.686000	0.199000
C211	C21	0.033800	0.741500	0.159600
H91	H9	0.046000	0.713000	0.237000
C221	C22	0.972800	0.882900	0.789300
C231	C23	0.402800	0.669000	0.302900
C241	C24	0.514800	0.635600	0.176700
C251	C25	0.640600	0.536800	0.168700
C261	C26	0.728300	0.504900	0.046300
H101	H10	0.808000	0.429000	0.038000
C271	C27	0.688500	0.571500	0.937800
H111	H11	0.747000	0.549000	0.850000
C281	C28	0.563000	0.671500	0.955000
H121	H12	0.538000	0.715000	0.886000
C291	C29	0.688600	0.461700	0.284300
C301	C30	0.940800	0.520900	0.562700
O111	O11	0.316800	0.938300	0.925500
O121	O12	0.222100	0.963800	0.761000
O131	O13	0.030400	0.799100	0.708900
O141	O14	0.894300	0.993200	0.769500
O151	O15	0.289000	0.758600	0.298900
O161	O16	0.419500	0.605400	0.404800
O171	O17	0.671000	0.346100	0.316000
O181	O18	0.756300	0.510800	0.336800
O191	O19	0.957400	0.606600	0.618900
O201	O20	0.838000	0.463700	0.597000
