data_YUMFES_clean_PM
_symmetry_space_group_name_H-M	'P1'
_cell_length_a	14.456200
_cell_length_b	14.911300
_cell_length_c	14.911300
_cell_angle_alpha	108.097000
_cell_angle_beta	94.885500
_cell_angle_gamma	85.114500
_symmetry_Int_Tables_number 1

loop_
_symmetry_equiv_pos_as_xyz
'x,y,z'

loop_
_atom_site_label
_atom_site_type_symbol
_atom_site_fract_x
_atom_site_fract_y
_atom_site_fract_z
Co11	Co1	0.784180	0.862950	0.261330
Co21	Co2	0.715820	0.261330	0.862950
Co31	Co3	0.215820	0.137050	0.738670
Co41	Co4	0.284180	0.738670	0.137050
Co51	Co5	0.250000	0.608080	0.608080
Co61	Co6	0.750000	0.391920	0.391920
H11	H1	0.823000	0.036300	0.033500
H21	H2	0.047100	0.894800	0.773400
H31	H3	0.148400	0.798700	0.667300
H41	H4	0.143100	0.594700	0.782100
H51	H5	0.038800	0.684300	0.889900
H61	H6	0.823700	0.164000	0.519200
H71	H7	0.117300	0.046800	0.331000
H81	H8	0.239500	0.952900	0.252700
H91	H9	0.115000	0.721700	0.230700
H101	H10	0.989300	0.808500	0.307300
H111	H11	0.440900	0.306600	0.499800
H121	H12	0.308000	0.442000	0.237000
H131	H13	0.280400	0.535900	0.138700
H141	H14	0.350600	0.762200	0.345400
H151	H15	0.380400	0.674500	0.449500
H161	H16	0.677000	0.033500	0.036300
H171	H17	0.452900	0.773400	0.894800
H181	H18	0.351600	0.667300	0.798700
H191	H19	0.356900	0.782100	0.594700
H201	H20	0.461200	0.889900	0.684300
H211	H21	0.676300	0.519200	0.164000
H221	H22	0.382700	0.331000	0.046800
H231	H23	0.260500	0.252700	0.952900
H241	H24	0.385000	0.230700	0.721700
H251	H25	0.510700	0.307300	0.808500
H261	H26	0.059100	0.499800	0.306600
H271	H27	0.192000	0.237000	0.442000
H281	H28	0.219600	0.138700	0.535900
H291	H29	0.149400	0.345400	0.762200
H301	H30	0.119600	0.449500	0.674500
H311	H31	0.177000	0.963700	0.966500
H321	H32	0.952900	0.105200	0.226600
H331	H33	0.851600	0.201300	0.332700
H341	H34	0.856900	0.405300	0.217900
H351	H35	0.961200	0.315700	0.110100
H361	H36	0.176300	0.836000	0.480800
H371	H37	0.882700	0.953200	0.669000
H381	H38	0.760500	0.047100	0.747300
H391	H39	0.885000	0.278300	0.769300
H401	H40	0.010700	0.191500	0.692700
H411	H41	0.559100	0.693400	0.500200
H421	H42	0.692000	0.558000	0.763000
H431	H43	0.719600	0.464100	0.861300
H441	H44	0.649400	0.237800	0.654600
H451	H45	0.619600	0.325500	0.550500
H461	H46	0.323000	0.966500	0.963700
H471	H47	0.547100	0.226600	0.105200
H481	H48	0.648400	0.332700	0.201300
H491	H49	0.643100	0.217900	0.405300
H501	H50	0.538800	0.110100	0.315700
H511	H51	0.323700	0.480800	0.836000
H521	H52	0.617300	0.669000	0.953200
H531	H53	0.739500	0.747300	0.047100
H541	H54	0.615000	0.769300	0.278300
H551	H55	0.489300	0.692700	0.191500
H561	H56	0.940900	0.500200	0.693400
H571	H57	0.808000	0.763000	0.558000
H581	H58	0.780400	0.861300	0.464100
H591	H59	0.850600	0.654600	0.237800
H601	H60	0.880400	0.550500	0.325500
C11	C1	0.844710	0.895960	0.122960
C21	C2	0.882600	0.906960	0.037240
C31	C3	0.862140	0.982430	0.004210
C41	C4	0.965850	0.858810	0.912070
C51	C5	0.030550	0.800130	0.843430
C61	C6	0.065110	0.832870	0.776050
C71	C7	0.125710	0.775020	0.712960
C81	C8	0.122260	0.656130	0.779550
C91	C9	0.060450	0.709420	0.844840
C101	C10	0.711110	0.020340	0.409140
C111	C11	0.813290	0.035600	0.417340
C121	C12	0.854620	0.112560	0.474760
C131	C13	0.957470	0.994800	0.371860
C141	C14	0.037170	0.937880	0.324320
C151	C15	0.114560	0.980080	0.309280
C161	C16	0.187130	0.923420	0.262360
C171	C17	0.114380	0.788740	0.249500
C181	C18	0.039270	0.839960	0.295460
C191	C19	0.360010	0.453250	0.645830
C201	C20	0.379340	0.441000	0.545240
C211	C21	0.417950	0.361840	0.484200
C221	C22	0.367780	0.488850	0.417650
C231	C23	0.347930	0.548280	0.354580
C241	C24	0.317460	0.507660	0.260700
C251	C25	0.301260	0.564240	0.202660
C261	C26	0.342190	0.696170	0.323110
C271	C27	0.360000	0.644450	0.385630
C281	C28	0.655290	0.122960	0.895960
C291	C29	0.617400	0.037240	0.906960
C301	C30	0.637860	0.004210	0.982430
C311	C31	0.534150	0.912070	0.858810
C321	C32	0.469450	0.843430	0.800130
C331	C33	0.434890	0.776050	0.832870
C341	C34	0.374290	0.712960	0.775020
C351	C35	0.377740	0.779550	0.656130
C361	C36	0.439550	0.844840	0.709420
C371	C37	0.788890	0.409140	0.020340
C381	C38	0.686710	0.417340	0.035600
C391	C39	0.645380	0.474760	0.112560
C401	C40	0.542530	0.371860	0.994800
C411	C41	0.462830	0.324320	0.937880
C421	C42	0.385440	0.309280	0.980080
C431	C43	0.312870	0.262360	0.923420
C441	C44	0.385620	0.249500	0.788740
C451	C45	0.460730	0.295460	0.839960
C461	C46	0.139990	0.645830	0.453250
C471	C47	0.120660	0.545240	0.441000
C481	C48	0.082050	0.484200	0.361840
C491	C49	0.132220	0.417650	0.488850
C501	C50	0.152070	0.354580	0.548280
C511	C51	0.182540	0.260700	0.507660
C521	C52	0.198740	0.202660	0.564240
C531	C53	0.157810	0.323110	0.696170
C541	C54	0.140000	0.385630	0.644450
C551	C55	0.155290	0.104040	0.877040
C561	C56	0.117400	0.093040	0.962760
C571	C57	0.137860	0.017570	0.995790
C581	C58	0.034150	0.141190	0.087930
C591	C59	0.969450	0.199870	0.156570
C601	C60	0.934890	0.167130	0.223950
C611	C61	0.874290	0.224980	0.287040
C621	C62	0.877740	0.343870	0.220450
C631	C63	0.939550	0.290580	0.155160
C641	C64	0.288890	0.979660	0.590860
C651	C65	0.186710	0.964400	0.582660
C661	C66	0.145380	0.887440	0.525240
C671	C67	0.042530	0.005200	0.628140
C681	C68	0.962830	0.062120	0.675680
C691	C69	0.885440	0.019920	0.690720
C701	C70	0.812870	0.076580	0.737640
C711	C71	0.885620	0.211260	0.750500
C721	C72	0.960730	0.160040	0.704540
C731	C73	0.639990	0.546750	0.354170
C741	C74	0.620660	0.559000	0.454760
C751	C75	0.582050	0.638160	0.515800
C761	C76	0.632220	0.511150	0.582350
C771	C77	0.652070	0.451720	0.645420
C781	C78	0.682540	0.492340	0.739300
C791	C79	0.698740	0.435760	0.797340
C801	C80	0.657810	0.303830	0.676890
C811	C81	0.640000	0.355550	0.614370
C821	C82	0.344710	0.877040	0.104040
C831	C83	0.382600	0.962760	0.093040
C841	C84	0.362140	0.995790	0.017570
C851	C85	0.465850	0.087930	0.141190
C861	C86	0.530550	0.156570	0.199870
C871	C87	0.565110	0.223950	0.167130
C881	C88	0.625710	0.287040	0.224980
C891	C89	0.622260	0.220450	0.343870
C901	C90	0.560450	0.155160	0.290580
C911	C91	0.211110	0.590860	0.979660
C921	C92	0.313290	0.582660	0.964400
C931	C93	0.354620	0.525240	0.887440
C941	C94	0.457470	0.628140	0.005200
C951	C95	0.537170	0.675680	0.062120
C961	C96	0.614560	0.690720	0.019920
C971	C97	0.687130	0.737640	0.076580
C981	C98	0.614380	0.750500	0.211260
C991	C99	0.539270	0.704540	0.160040
C1001	C100	0.860010	0.354170	0.546750
C1011	C101	0.879340	0.454760	0.559000
C1021	C102	0.917950	0.515800	0.638160
C1031	C103	0.867780	0.582350	0.511150
C1041	C104	0.847930	0.645420	0.451720
C1051	C105	0.817460	0.739300	0.492340
C1061	C106	0.801260	0.797340	0.435760
C1071	C107	0.842190	0.676890	0.303830
C1081	C108	0.860000	0.614370	0.355550
S11	S1	0.916240	0.966680	0.903460
S21	S2	0.970240	0.104090	0.455910
S31	S3	0.419180	0.376070	0.375250
S41	S4	0.583760	0.903460	0.966680
S51	S5	0.529760	0.455910	0.104090
S61	S6	0.080820	0.375250	0.376070
S71	S7	0.083760	0.033320	0.096540
S81	S8	0.029760	0.895910	0.544090
S91	S9	0.580820	0.623930	0.624750
S101	S10	0.416240	0.096540	0.033320
S111	S11	0.470240	0.544090	0.895910
S121	S12	0.919180	0.624750	0.623930
N11	N1	0.942260	0.837030	0.984830
N21	N2	0.154140	0.686800	0.712900
N31	N3	0.871570	0.968210	0.358810
N41	N4	0.187160	0.828790	0.229850
N51	N5	0.350690	0.513180	0.507540
N61	N6	0.313400	0.657500	0.231980
N71	N7	0.557740	0.984830	0.837030
N81	N8	0.345860	0.712900	0.686800
N91	N9	0.628430	0.358810	0.968210
N101	N10	0.312840	0.229850	0.828790
N111	N11	0.149310	0.507540	0.513180
N121	N12	0.186600	0.231980	0.657500
N131	N13	0.057740	0.162970	0.015170
N141	N14	0.845860	0.313200	0.287100
N151	N15	0.128430	0.031790	0.641190
N161	N16	0.812840	0.171210	0.770150
N171	N17	0.649310	0.486820	0.492460
N181	N18	0.686600	0.342500	0.768020
N191	N19	0.442260	0.015170	0.162970
N201	N20	0.654140	0.287100	0.313200
N211	N21	0.371570	0.641190	0.031790
N221	N22	0.687160	0.770150	0.171210
N231	N23	0.850690	0.492460	0.486820
N241	N24	0.813400	0.768020	0.342500
O11	O1	0.877170	0.827790	0.152570
O21	O2	0.780920	0.952310	0.162730
O31	O3	0.685920	0.945400	0.344480
O41	O4	0.660300	0.079480	0.462480
O51	O5	0.301870	0.522190	0.682590
O61	O6	0.398800	0.397840	0.685260
O71	O7	0.622830	0.152570	0.827790
O81	O8	0.719080	0.162730	0.952310
O91	O9	0.814080	0.344480	0.945400
O101	O10	0.839700	0.462480	0.079480
O111	O11	0.198130	0.682590	0.522190
O121	O12	0.101200	0.685260	0.397840
O131	O13	0.122830	0.172210	0.847430
O141	O14	0.219080	0.047690	0.837270
O151	O15	0.314080	0.054600	0.655520
O161	O16	0.339700	0.920520	0.537520
O171	O17	0.698130	0.477810	0.317410
O181	O18	0.601200	0.602160	0.314740
O191	O19	0.377170	0.847430	0.172210
O201	O20	0.280920	0.837270	0.047690
O211	O21	0.185920	0.655520	0.054600
O221	O22	0.160300	0.537520	0.920520
O231	O23	0.801870	0.317410	0.477810
O241	O24	0.898800	0.314740	0.602160
