data_YUMJAS_clean_PM
_symmetry_space_group_name_H-M	'P1'
_cell_length_a	14.374100
_cell_length_b	13.906900
_cell_length_c	21.718700
_cell_angle_alpha	90.000000
_cell_angle_beta	106.945000
_cell_angle_gamma	90.000000
_symmetry_Int_Tables_number 1

loop_
_symmetry_equiv_pos_as_xyz
'x,y,z'

loop_
_atom_site_label
_atom_site_type_symbol
_atom_site_fract_x
_atom_site_fract_y
_atom_site_fract_z
Ba11	Ba1	0.972410	0.428620	0.180860
Mo11	Mo1	0.671450	0.288720	0.992070
Mo21	Mo2	0.658150	0.404520	0.896470
Mo31	Mo3	0.346900	0.342930	0.083430
Mo41	Mo4	0.330610	0.273360	0.970300
Mo51	Mo5	0.686400	0.569920	0.161040
Mo61	Mo6	0.693050	0.384970	0.145570
P11	P1	0.811290	0.551980	0.854070
P21	P2	0.187670	0.224520	0.824950
P31	P3	0.851130	0.217860	0.121440
P41	P4	0.781590	0.507850	0.039740
O11	O1	0.763000	0.323200	0.946150
O21	O2	0.578700	0.390900	0.954950
O31	O3	0.616400	0.291300	0.072010
H11	H1	0.559800	0.315600	0.058400
O41	O4	0.782600	0.211900	0.052100
O51	O5	0.742600	0.411100	0.058290
O61	O6	0.758100	0.456400	0.853120
O71	O7	0.582500	0.535100	0.867360
H21	H2	0.530600	0.529900	0.878300
O81	O8	0.734800	0.521300	0.965850
O91	O9	0.746700	0.636300	0.860820
O101	O10	0.424600	0.362900	0.024500
O111	O11	0.240700	0.278700	0.021360
O121	O12	0.391600	0.316400	0.895960
H31	H3	0.447200	0.338400	0.916400
O131	O13	0.213500	0.219000	0.898300
O141	O14	0.740000	0.588700	0.073480
O151	O15	0.206900	0.328800	0.804960
O161	O16	0.792600	0.478600	0.186400
O171	O17	0.595700	0.480500	0.104860
O181	O18	0.809900	0.289900	0.160930
O191	O19	0.830500	0.558800	0.787510
O201	O20	0.909300	0.554400	0.904140
O211	O21	0.082900	0.201600	0.793000
H41	H4	0.221700	0.122000	0.772200
O221	O22	0.254800	0.155100	0.803900
O231	O23	0.951500	0.253800	0.121700
O241	O24	0.857600	0.119900	0.152700
H51	H5	0.916400	0.101100	0.163500
O251	O25	0.889200	0.507600	0.059670
Ba21	Ba2	0.027590	0.928620	0.319140
Mo71	Mo7	0.328550	0.788720	0.507930
Mo81	Mo8	0.341850	0.904520	0.603530
Mo91	Mo9	0.653100	0.842930	0.416570
Mo101	Mo10	0.669390	0.773360	0.529700
Mo111	Mo11	0.313600	0.069920	0.338960
Mo121	Mo12	0.306950	0.884970	0.354430
P51	P5	0.188710	0.051980	0.645930
P61	P6	0.812330	0.724520	0.675050
P71	P7	0.148870	0.717860	0.378560
P81	P8	0.218410	0.007850	0.460260
O261	O26	0.237000	0.823200	0.553850
O271	O27	0.421300	0.890900	0.545050
O281	O28	0.383600	0.791300	0.427990
H61	H6	0.440200	0.815600	0.441600
O291	O29	0.217400	0.711900	0.447900
O301	O30	0.257400	0.911100	0.441710
O311	O31	0.241900	0.956400	0.646880
O321	O32	0.417500	0.035100	0.632640
H71	H7	0.469400	0.029900	0.621700
O331	O33	0.265200	0.021300	0.534150
O341	O34	0.253300	0.136300	0.639180
O351	O35	0.575400	0.862900	0.475500
O361	O36	0.759300	0.778700	0.478640
O371	O37	0.608400	0.816400	0.604040
H81	H8	0.552800	0.838400	0.583600
O381	O38	0.786500	0.719000	0.601700
O391	O39	0.260000	0.088700	0.426520
O401	O40	0.793100	0.828800	0.695040
O411	O41	0.207400	0.978600	0.313600
O421	O42	0.404300	0.980500	0.395140
O431	O43	0.190100	0.789900	0.339070
O441	O44	0.169500	0.058800	0.712490
O451	O45	0.090700	0.054400	0.595860
O461	O46	0.917100	0.701600	0.707000
H91	H9	0.778300	0.622000	0.727800
O471	O47	0.745200	0.655100	0.696100
O481	O48	0.048500	0.753800	0.378300
O491	O49	0.142400	0.619900	0.347300
H101	H10	0.083600	0.601100	0.336500
O501	O50	0.110800	0.007600	0.440330
Ba31	Ba3	0.027590	0.571380	0.819140
Mo131	Mo13	0.328550	0.711280	0.007930
Mo141	Mo14	0.341850	0.595480	0.103530
Mo151	Mo15	0.653100	0.657070	0.916570
Mo161	Mo16	0.669390	0.726640	0.029700
Mo171	Mo17	0.313600	0.430080	0.838960
Mo181	Mo18	0.306950	0.615030	0.854430
P91	P9	0.188710	0.448020	0.145930
P101	P10	0.812330	0.775480	0.175050
P111	P11	0.148870	0.782140	0.878560
P121	P12	0.218410	0.492150	0.960260
O511	O51	0.237000	0.676800	0.053850
O521	O52	0.421300	0.609100	0.045050
O531	O53	0.383600	0.708700	0.927990
H111	H11	0.440200	0.684400	0.941600
O541	O54	0.217400	0.788100	0.947900
O551	O55	0.257400	0.588900	0.941710
O561	O56	0.241900	0.543600	0.146880
O571	O57	0.417500	0.464900	0.132640
H121	H12	0.469400	0.470100	0.121700
O581	O58	0.265200	0.478700	0.034150
O591	O59	0.253300	0.363700	0.139180
O601	O60	0.575400	0.637100	0.975500
O611	O61	0.759300	0.721300	0.978640
O621	O62	0.608400	0.683600	0.104040
H131	H13	0.552800	0.661600	0.083600
O631	O63	0.786500	0.781000	0.101700
O641	O64	0.260000	0.411300	0.926520
O651	O65	0.793100	0.671200	0.195040
O661	O66	0.207400	0.521400	0.813600
O671	O67	0.404300	0.519500	0.895140
O681	O68	0.190100	0.710100	0.839070
O691	O69	0.169500	0.441200	0.212490
O701	O70	0.090700	0.445600	0.095860
O711	O71	0.917100	0.798400	0.207000
H141	H14	0.778300	0.878000	0.227800
O721	O72	0.745200	0.844900	0.196100
O731	O73	0.048500	0.746200	0.878300
O741	O74	0.142400	0.880100	0.847300
H151	H15	0.083600	0.898900	0.836500
O751	O75	0.110800	0.492400	0.940330
Ba41	Ba4	0.972410	0.071380	0.680860
Mo191	Mo19	0.671450	0.211280	0.492070
Mo201	Mo20	0.658150	0.095480	0.396470
Mo211	Mo21	0.346900	0.157070	0.583430
Mo221	Mo22	0.330610	0.226640	0.470300
Mo231	Mo23	0.686400	0.930080	0.661040
Mo241	Mo24	0.693050	0.115030	0.645570
P131	P13	0.811290	0.948020	0.354070
P141	P14	0.187670	0.275480	0.324950
P151	P15	0.851130	0.282140	0.621440
P161	P16	0.781590	0.992150	0.539740
O761	O76	0.763000	0.176800	0.446150
O771	O77	0.578700	0.109100	0.454950
O781	O78	0.616400	0.208700	0.572010
H161	H16	0.559800	0.184400	0.558400
O791	O79	0.782600	0.288100	0.552100
O801	O80	0.742600	0.088900	0.558290
O811	O81	0.758100	0.043600	0.353120
O821	O82	0.582500	0.964900	0.367360
H171	H17	0.530600	0.970100	0.378300
O831	O83	0.734800	0.978700	0.465850
O841	O84	0.746700	0.863700	0.360820
O851	O85	0.424600	0.137100	0.524500
O861	O86	0.240700	0.221300	0.521360
O871	O87	0.391600	0.183600	0.395960
H181	H18	0.447200	0.161600	0.416400
O881	O88	0.213500	0.281000	0.398300
O891	O89	0.740000	0.911300	0.573480
O901	O90	0.206900	0.171200	0.304960
O911	O91	0.792600	0.021400	0.686400
O921	O92	0.595700	0.019500	0.604860
O931	O93	0.809900	0.210100	0.660930
O941	O94	0.830500	0.941200	0.287510
O951	O95	0.909300	0.945600	0.404140
O961	O96	0.082900	0.298400	0.293000
H191	H19	0.221700	0.378000	0.272200
O971	O97	0.254800	0.344900	0.303900
O981	O98	0.951500	0.246200	0.621700
O991	O99	0.857600	0.380100	0.652700
H201	H20	0.916400	0.398900	0.663500
O1001	O100	0.889200	0.992400	0.559670
Ca11	Ca1	0.500000	0.500000	0.000000
Ca21	Ca2	0.500000	0.000000	0.500000
