data_YUMKAU_clean_PM
_symmetry_space_group_name_H-M	'P1'
_cell_length_a	16.860000
_cell_length_b	24.513000
_cell_length_c	11.920000
_cell_angle_alpha	90.000000
_cell_angle_beta	109.392000
_cell_angle_gamma	90.000000
_symmetry_Int_Tables_number 1

loop_
_symmetry_equiv_pos_as_xyz
'x,y,z'

loop_
_atom_site_label
_atom_site_type_symbol
_atom_site_fract_x
_atom_site_fract_y
_atom_site_fract_z
C11	C1	0.178300	0.174310	0.793500
C21	C2	0.249100	0.195000	0.897500
C31	C3	0.233600	0.223810	0.986900
H11	H1	0.178500	0.230100	0.983800
C41	C4	0.300300	0.243690	0.082400
H21	H2	0.289400	0.263900	0.141700
C51	C5	0.382600	0.233590	0.089300
C61	C6	0.396900	0.203930	0.999300
H31	H3	0.451800	0.195900	0.003800
C71	C7	0.331000	0.186070	0.903000
H41	H4	0.341900	0.167800	0.841200
C81	C8	0.452100	0.254590	0.191300
H51	H5	0.437000	0.274600	0.247300
C91	C9	0.533200	0.248210	0.212200
H61	H6	0.548800	0.227200	0.158000
C101	C10	0.601900	0.271130	0.313100
C111	C11	0.685300	0.258770	0.326900
H71	H7	0.697300	0.235600	0.272800
C121	C12	0.750300	0.280540	0.419900
H81	H8	0.805600	0.272500	0.427000
C131	C13	0.586800	0.305570	0.395600
H91	H9	0.531700	0.315400	0.386700
C141	C14	0.803600	0.338270	0.603400
C151	C15	0.733800	0.314140	0.502400
C161	C16	0.651400	0.325510	0.490700
H101	H10	0.639400	0.346800	0.547600
C171	C17	0.050300	0.994300	0.811500
H111	H11	0.039500	0.979200	0.876600
C181	C18	0.080200	0.003030	0.656100
H121	H12	0.094700	0.995100	0.589100
C191	C19	0.952500	0.257380	0.331500
H131	H13	0.926400	0.264500	0.251000
C201	C20	0.012900	0.267580	0.514000
H141	H14	0.037800	0.283500	0.588300
Cd11	Cd1	0.052520	0.136870	0.600160
Cd21	Cd2	0.006620	0.120040	0.866330
Cd31	Cd3	0.933770	0.125510	0.290910
N11	N1	0.065550	0.052340	0.685700
N21	N2	0.045550	0.047000	0.788000
N31	N3	0.072030	0.964930	0.732500
N41	N4	0.964960	0.208220	0.376100
N51	N5	0.005250	0.214950	0.497100
N61	N6	0.980980	0.296500	0.413100
O11	O1	0.789880	0.351690	0.695500
O21	O2	0.874950	0.343990	0.592300
O31	O3	0.105500	0.171580	0.800700
O41	O4	0.192790	0.160850	0.700900
C211	C21	0.821700	0.674310	0.706500
C221	C22	0.750900	0.695000	0.602500
C231	C23	0.766400	0.723810	0.513100
H151	H15	0.821500	0.730100	0.516200
C241	C24	0.699700	0.743690	0.417600
H161	H16	0.710600	0.763900	0.358300
C251	C25	0.617400	0.733590	0.410700
C261	C26	0.603100	0.703930	0.500700
H171	H17	0.548200	0.695900	0.496200
C271	C27	0.669000	0.686070	0.597000
H181	H18	0.658100	0.667800	0.658800
C281	C28	0.547900	0.754590	0.308700
H191	H19	0.563000	0.774600	0.252700
C291	C29	0.466800	0.748210	0.287800
H201	H20	0.451200	0.727200	0.342000
C301	C30	0.398100	0.771130	0.186900
C311	C31	0.314700	0.758770	0.173100
H211	H21	0.302700	0.735600	0.227200
C321	C32	0.249700	0.780540	0.080100
H221	H22	0.194400	0.772500	0.073000
C331	C33	0.413200	0.805570	0.104400
H231	H23	0.468300	0.815400	0.113300
C341	C34	0.196400	0.838270	0.896600
C351	C35	0.266200	0.814140	0.997600
C361	C36	0.348600	0.825510	0.009300
H241	H24	0.360600	0.846800	0.952400
C371	C37	0.949700	0.494300	0.688500
H251	H25	0.960500	0.479200	0.623400
C381	C38	0.919800	0.503030	0.843900
H261	H26	0.905300	0.495100	0.910900
C391	C39	0.047500	0.757380	0.168500
H271	H27	0.073600	0.764500	0.249000
C401	C40	0.987100	0.767580	0.986000
H281	H28	0.962200	0.783500	0.911700
Cd41	Cd4	0.947480	0.636870	0.899840
Cd51	Cd5	0.993380	0.620040	0.633670
Cd61	Cd6	0.066230	0.625510	0.209090
N71	N7	0.934450	0.552340	0.814300
N81	N8	0.954450	0.547000	0.712000
N91	N9	0.927970	0.464930	0.767500
N101	N10	0.035040	0.708220	0.123900
N111	N11	0.994750	0.714950	0.002900
N121	N12	0.019020	0.796500	0.086900
O51	O5	0.210120	0.851690	0.804500
O61	O6	0.125050	0.843990	0.907700
O71	O7	0.894500	0.671580	0.699300
O81	O8	0.807210	0.660850	0.799100
C411	C41	0.821700	0.825690	0.206500
C421	C42	0.750900	0.805000	0.102500
C431	C43	0.766400	0.776190	0.013100
H291	H29	0.821500	0.769900	0.016200
C441	C44	0.699700	0.756310	0.917600
H301	H30	0.710600	0.736100	0.858300
C451	C45	0.617400	0.766410	0.910700
C461	C46	0.603100	0.796070	0.000700
H311	H31	0.548200	0.804100	0.996200
C471	C47	0.669000	0.813930	0.097000
H321	H32	0.658100	0.832200	0.158800
C481	C48	0.547900	0.745410	0.808700
H331	H33	0.563000	0.725400	0.752700
C491	C49	0.466800	0.751790	0.787800
H341	H34	0.451200	0.772800	0.842000
C501	C50	0.398100	0.728870	0.686900
C511	C51	0.314700	0.741230	0.673100
H351	H35	0.302700	0.764400	0.727200
C521	C52	0.249700	0.719460	0.580100
H361	H36	0.194400	0.727500	0.573000
C531	C53	0.413200	0.694430	0.604400
H371	H37	0.468300	0.684600	0.613300
C541	C54	0.196400	0.661730	0.396600
C551	C55	0.266200	0.685860	0.497600
C561	C56	0.348600	0.674490	0.509300
H381	H38	0.360600	0.653200	0.452400
C571	C57	0.949700	0.005700	0.188500
H391	H39	0.960500	0.020800	0.123400
C581	C58	0.919800	0.996970	0.343900
H401	H40	0.905300	0.004900	0.410900
C591	C59	0.047500	0.742620	0.668500
H411	H41	0.073600	0.735500	0.749000
C601	C60	0.987100	0.732420	0.486000
H421	H42	0.962200	0.716500	0.411700
Cd71	Cd7	0.947480	0.863130	0.399840
Cd81	Cd8	0.993380	0.879960	0.133670
Cd91	Cd9	0.066230	0.874490	0.709090
N131	N13	0.934450	0.947660	0.314300
N141	N14	0.954450	0.953000	0.212000
N151	N15	0.927970	0.035070	0.267500
N161	N16	0.035040	0.791780	0.623900
N171	N17	0.994750	0.785050	0.502900
N181	N18	0.019020	0.703500	0.586900
O91	O9	0.210120	0.648310	0.304500
O101	O10	0.125050	0.656010	0.407700
O111	O11	0.894500	0.828420	0.199300
O121	O12	0.807210	0.839150	0.299100
C611	C61	0.178300	0.325690	0.293500
C621	C62	0.249100	0.305000	0.397500
C631	C63	0.233600	0.276190	0.486900
H431	H43	0.178500	0.269900	0.483800
C641	C64	0.300300	0.256310	0.582400
H441	H44	0.289400	0.236100	0.641700
C651	C65	0.382600	0.266410	0.589300
C661	C66	0.396900	0.296070	0.499300
H451	H45	0.451800	0.304100	0.503800
C671	C67	0.331000	0.313930	0.403000
H461	H46	0.341900	0.332200	0.341200
C681	C68	0.452100	0.245410	0.691300
H471	H47	0.437000	0.225400	0.747300
C691	C69	0.533200	0.251790	0.712200
H481	H48	0.548800	0.272800	0.658000
C701	C70	0.601900	0.228870	0.813100
C711	C71	0.685300	0.241230	0.826900
H491	H49	0.697300	0.264400	0.772800
C721	C72	0.750300	0.219460	0.919900
H501	H50	0.805600	0.227500	0.927000
C731	C73	0.586800	0.194430	0.895600
H511	H51	0.531700	0.184600	0.886700
C741	C74	0.803600	0.161730	0.103400
C751	C75	0.733800	0.185860	0.002400
C761	C76	0.651400	0.174490	0.990700
H521	H52	0.639400	0.153200	0.047600
C771	C77	0.050300	0.505700	0.311500
H531	H53	0.039500	0.520800	0.376600
C781	C78	0.080200	0.496970	0.156100
H541	H54	0.094700	0.504900	0.089100
C791	C79	0.952500	0.242620	0.831500
H551	H55	0.926400	0.235500	0.751000
C801	C80	0.012900	0.232420	0.014000
H561	H56	0.037800	0.216500	0.088300
Cd101	Cd10	0.052520	0.363130	0.100160
Cd111	Cd11	0.006620	0.379960	0.366330
Cd121	Cd12	0.933770	0.374490	0.790910
N191	N19	0.065550	0.447660	0.185700
N201	N20	0.045550	0.453000	0.288000
N211	N21	0.072030	0.535070	0.232500
N221	N22	0.964960	0.291780	0.876100
N231	N23	0.005250	0.285050	0.997100
N241	N24	0.980980	0.203500	0.913100
O131	O13	0.789880	0.148310	0.195500
O141	O14	0.874950	0.156010	0.092300
O151	O15	0.105500	0.328420	0.300700
O161	O16	0.192790	0.339150	0.200900
