data_YUMYUC_clean_PM
_symmetry_space_group_name_H-M	'P1'
_cell_length_a	11.928600
_cell_length_b	11.928600
_cell_length_c	10.469000
_cell_angle_alpha	90.000000
_cell_angle_beta	90.000000
_cell_angle_gamma	120.000000
_symmetry_Int_Tables_number 1

loop_
_symmetry_equiv_pos_as_xyz
'x,y,z'

loop_
_atom_site_label
_atom_site_type_symbol
_atom_site_fract_x
_atom_site_fract_y
_atom_site_fract_z
N11	N1	0.106440	0.517320	0.224910
N21	N2	0.150510	0.531820	0.349310
C11	C1	0.260300	0.530100	0.345100
N31	N3	0.290020	0.514900	0.222150
C21	C2	0.192000	0.508700	0.151900
H11	H1	0.185700	0.499500	0.063600
N41	N4	0.327900	0.532000	0.449900
H21	H2	0.299800	0.534400	0.524900
H31	H3	0.399000	0.530700	0.441400
O11	O1	0.401700	0.367730	0.298600
H41	H4	0.453900	0.342200	0.293800
Cu11	Cu1	0.437650	0.497820	0.159820
N51	N5	0.482680	0.589120	0.891580
N61	N6	0.468180	0.618690	0.015980
C31	C3	0.469900	0.730200	0.011770
N71	N7	0.485100	0.775120	0.888820
C41	C4	0.491300	0.683300	0.818570
H51	H5	0.500500	0.686200	0.730270
N81	N8	0.468000	0.795900	0.116570
H61	H6	0.465600	0.765400	0.191570
H71	H7	0.469300	0.868300	0.108070
O21	O2	0.632270	0.033970	0.965270
H81	H8	0.657800	0.111700	0.960470
Cu21	Cu2	0.502180	0.939830	0.826490
N91	N9	0.410880	0.893560	0.558240
N101	N10	0.381310	0.849490	0.682640
C51	C5	0.269800	0.739700	0.678430
N111	N11	0.224880	0.709980	0.555480
C61	C6	0.316700	0.808000	0.485230
H91	H9	0.313800	0.814300	0.396930
N121	N12	0.204100	0.672100	0.783230
H101	H10	0.234600	0.700200	0.858230
H111	H11	0.131700	0.601000	0.774730
O31	O3	0.966030	0.598300	0.631930
H121	H12	0.888300	0.546100	0.627130
Cu31	Cu3	0.060170	0.562350	0.493150
N131	N13	0.517320	0.106440	0.775090
N141	N14	0.531820	0.150510	0.650690
C71	C7	0.530100	0.260300	0.654900
N151	N15	0.514900	0.290020	0.777850
C81	C8	0.508700	0.192000	0.848100
H131	H13	0.499500	0.185700	0.936400
N161	N16	0.532000	0.327900	0.550100
H141	H14	0.534400	0.299800	0.475100
H151	H15	0.530700	0.399000	0.558600
O41	O4	0.367730	0.401700	0.701400
H161	H16	0.342200	0.453900	0.706200
Cu41	Cu4	0.497820	0.437650	0.840180
N171	N17	0.589120	0.482680	0.108420
N181	N18	0.618690	0.468180	0.984020
C91	C9	0.730200	0.469900	0.988230
N191	N19	0.775120	0.485100	0.111180
C101	C10	0.683300	0.491300	0.181430
H171	H17	0.686200	0.500500	0.269730
N201	N20	0.795900	0.468000	0.883430
H181	H18	0.765400	0.465600	0.808430
H191	H19	0.868300	0.469300	0.891930
O51	O5	0.033970	0.632270	0.034730
H201	H20	0.111700	0.657800	0.039530
Cu51	Cu5	0.939830	0.502180	0.173510
N211	N21	0.893560	0.410880	0.441760
N221	N22	0.849490	0.381310	0.317360
C111	C11	0.739700	0.269800	0.321570
N231	N23	0.709980	0.224880	0.444520
C121	C12	0.808000	0.316700	0.514770
H211	H21	0.814300	0.313800	0.603070
N241	N24	0.672100	0.204100	0.216770
H221	H22	0.700200	0.234600	0.141770
H231	H23	0.601000	0.131700	0.225270
O61	O6	0.598300	0.966030	0.368070
H241	H24	0.546100	0.888300	0.372870
Cu61	Cu6	0.562350	0.060170	0.506850
