data_YUNKIC_charged_PM
_symmetry_space_group_name_H-M	'P1'
_cell_length_a	18.028000
_cell_length_b	18.924000
_cell_length_c	18.484000
_cell_angle_alpha	109.975000
_cell_angle_beta	90.000000
_cell_angle_gamma	90.000000
_symmetry_Int_Tables_number 1

loop_
_symmetry_equiv_pos_as_xyz
'x,y,z'

loop_
_atom_site_label
_atom_site_type_symbol
_atom_site_fract_x
_atom_site_fract_y
_atom_site_fract_z
Cu11	Cu1	0.425300	0.577580	0.237710
Cu21	Cu2	0.545200	0.687970	0.366730
Cu31	Cu3	0.405470	0.228440	0.437660
Cu41	Cu4	0.391150	0.089410	0.275750
Cu51	Cu5	0.925300	0.422420	0.262290
Cu61	Cu6	0.045200	0.312030	0.133270
Cu71	Cu7	0.905470	0.771560	0.062340
Cu81	Cu8	0.891150	0.910590	0.224250
Cu91	Cu9	0.574700	0.422420	0.762290
Cu101	Cu10	0.454800	0.312030	0.633270
Cu111	Cu11	0.594530	0.771560	0.562340
Cu121	Cu12	0.608850	0.910590	0.724250
Cu131	Cu13	0.074700	0.577580	0.737710
Cu141	Cu14	0.954800	0.687970	0.866730
Cu151	Cu15	0.094530	0.228440	0.937660
Cu161	Cu16	0.108850	0.089410	0.775750
H11	H1	0.503100	0.557500	0.340100
H21	H2	0.468500	0.102100	0.392000
H31	H3	0.504100	0.990200	0.213500
H41	H4	0.526800	0.061300	0.204200
H51	H5	0.501200	0.473100	0.104400
H61	H6	0.532700	0.348500	0.050300
H71	H7	0.511300	0.268500	0.118000
H81	H8	0.411400	0.437800	0.281100
H91	H9	0.443200	0.361400	0.363300
H101	H10	0.422800	0.194800	0.165100
H111	H11	0.639600	0.810600	0.315200
H121	H12	0.697400	0.893500	0.532100
H131	H13	0.713600	0.012000	0.496000
H141	H14	0.804500	0.088200	0.471300
H151	H15	0.877500	0.042300	0.365500
H161	H16	0.777000	0.847600	0.304000
H171	H17	0.158400	0.448700	0.163700
H181	H18	0.208700	0.364600	0.943000
H191	H19	0.241900	0.503000	0.967900
H201	H20	0.331300	0.595400	0.992100
H211	H21	0.398200	0.630200	0.102700
H221	H22	0.294400	0.482800	0.169600
H231	H23	0.248000	0.047700	0.316100
H241	H24	0.182000	0.952900	0.335700
H251	H25	0.243800	0.842100	0.330700
H261	H26	0.430500	0.933300	0.283100
H271	H27	0.478000	0.846700	0.362900
H281	H28	0.319800	0.722700	0.236300
H291	H29	0.003100	0.442500	0.159900
H301	H30	0.968500	0.897900	0.108000
H311	H31	0.004100	0.009800	0.286500
H321	H32	0.026800	0.938700	0.295800
H331	H33	0.001200	0.526900	0.395600
H341	H34	0.032700	0.651500	0.449700
H351	H35	0.011300	0.731500	0.382000
H361	H36	0.911400	0.562200	0.218900
H371	H37	0.943200	0.638600	0.136700
H381	H38	0.922800	0.805200	0.334900
H391	H39	0.139600	0.189400	0.184800
H401	H40	0.197400	0.106500	0.967900
H411	H41	0.213600	0.988000	0.004000
H421	H42	0.304500	0.911800	0.028700
H431	H43	0.377500	0.957700	0.134500
H441	H44	0.277000	0.152400	0.196000
H451	H45	0.658400	0.551300	0.336300
H461	H46	0.708700	0.635400	0.557000
H471	H47	0.741900	0.497000	0.532100
H481	H48	0.831300	0.404600	0.507900
H491	H49	0.898200	0.369800	0.397300
H501	H50	0.794400	0.517200	0.330400
H511	H51	0.748000	0.952300	0.183900
H521	H52	0.682000	0.047100	0.164300
H531	H53	0.743800	0.157900	0.169300
H541	H54	0.930500	0.066700	0.216900
H551	H55	0.978000	0.153300	0.137100
H561	H56	0.819800	0.277300	0.263700
H571	H57	0.496900	0.442500	0.659900
H581	H58	0.531500	0.897900	0.608000
H591	H59	0.495900	0.009800	0.786500
H601	H60	0.473200	0.938700	0.795800
H611	H61	0.498800	0.526900	0.895600
H621	H62	0.467300	0.651500	0.949700
H631	H63	0.488700	0.731500	0.882000
H641	H64	0.588600	0.562200	0.718900
H651	H65	0.556800	0.638600	0.636700
H661	H66	0.577200	0.805200	0.834900
H671	H67	0.360400	0.189400	0.684800
H681	H68	0.302600	0.106500	0.467900
H691	H69	0.286400	0.988000	0.504000
H701	H70	0.195500	0.911800	0.528700
H711	H71	0.122500	0.957700	0.634500
H721	H72	0.223000	0.152400	0.696000
H731	H73	0.841600	0.551300	0.836300
H741	H74	0.791300	0.635400	0.057000
H751	H75	0.758100	0.497000	0.032100
H761	H76	0.668700	0.404600	0.007900
H771	H77	0.601800	0.369800	0.897300
H781	H78	0.705600	0.517200	0.830400
H791	H79	0.752000	0.952300	0.683900
H801	H80	0.818000	0.047100	0.664300
H811	H81	0.756200	0.157900	0.669300
H821	H82	0.569500	0.066700	0.716900
H831	H83	0.522000	0.153300	0.637100
H841	H84	0.680200	0.277300	0.763700
H851	H85	0.996900	0.557500	0.840100
H861	H86	0.031500	0.102100	0.892000
H871	H87	0.995900	0.990200	0.713500
H881	H88	0.973200	0.061300	0.704200
H891	H89	0.998800	0.473100	0.604400
H901	H90	0.967300	0.348500	0.550300
H911	H91	0.988700	0.268500	0.618000
H921	H92	0.088600	0.437800	0.781100
H931	H93	0.056800	0.361400	0.863300
H941	H94	0.077200	0.194800	0.665100
H951	H95	0.860400	0.810600	0.815200
H961	H96	0.802600	0.893500	0.032100
H971	H97	0.786400	0.012000	0.996000
H981	H98	0.695500	0.088200	0.971300
H991	H99	0.622500	0.042300	0.865500
H1001	H100	0.723000	0.847600	0.804000
H1011	H101	0.341600	0.448700	0.663700
H1021	H102	0.291300	0.364600	0.443000
H1031	H103	0.258100	0.503000	0.467900
H1041	H104	0.168700	0.595400	0.492100
H1051	H105	0.101800	0.630200	0.602700
H1061	H106	0.205600	0.482800	0.669600
H1071	H107	0.252000	0.047700	0.816100
H1081	H108	0.318000	0.952900	0.835700
H1091	H109	0.256200	0.842100	0.830700
H1101	H110	0.069500	0.933300	0.783100
H1111	H111	0.022000	0.846700	0.862900
H1121	H112	0.180200	0.722700	0.736300
C11	C1	0.489500	0.440400	0.130600
C21	C2	0.509900	0.365900	0.098300
C31	C3	0.496200	0.318500	0.137400
C41	C4	0.459400	0.345900	0.206500
C51	C5	0.437700	0.420300	0.235000
C61	C6	0.435800	0.313900	0.326800
C71	C7	0.424400	0.222200	0.217500
C81	C8	0.643000	0.819000	0.367700
C91	C9	0.674500	0.864600	0.486400
C101	C10	0.737800	0.921900	0.402000
C111	C11	0.744200	0.994200	0.453100
C121	C12	0.797800	0.039100	0.438000
C131	C13	0.840900	0.011500	0.374200
C141	C14	0.782200	0.896600	0.337800
C151	C15	0.159300	0.418200	0.112200
C161	C16	0.186900	0.371600	0.990500
C171	C17	0.258900	0.484600	0.067400
C181	C18	0.269600	0.517200	0.013000
C191	C19	0.322600	0.571700	0.027800
C201	C20	0.363200	0.592100	0.094100
C211	C21	0.302000	0.506100	0.133300
C221	C22	0.272700	0.003600	0.313000
C231	C23	0.232500	0.947200	0.325400
C241	C24	0.269000	0.881500	0.322300
C251	C25	0.343100	0.877100	0.306500
C261	C26	0.379900	0.937000	0.293800
C271	C27	0.449500	0.805800	0.334200
C281	C28	0.363000	0.737400	0.265000
C291	C29	0.989500	0.559600	0.369400
C301	C30	0.009900	0.634100	0.401700
C311	C31	0.996200	0.681500	0.362600
C321	C32	0.959400	0.654100	0.293500
C331	C33	0.937700	0.579700	0.265000
C341	C34	0.935800	0.686100	0.173200
C351	C35	0.924400	0.777800	0.282500
C361	C36	0.143000	0.181000	0.132300
C371	C37	0.174500	0.135400	0.013600
C381	C38	0.237800	0.078100	0.098000
C391	C39	0.244200	0.005800	0.046900
C401	C40	0.297800	0.960900	0.062000
C411	C41	0.340900	0.988500	0.125800
C421	C42	0.282200	0.103400	0.162200
C431	C43	0.659300	0.581800	0.387800
C441	C44	0.686900	0.628400	0.509500
C451	C45	0.758900	0.515400	0.432600
C461	C46	0.769600	0.482800	0.487000
C471	C47	0.822600	0.428300	0.472200
C481	C48	0.863200	0.407900	0.405900
C491	C49	0.802000	0.493900	0.366700
C501	C50	0.772700	0.996400	0.187000
C511	C51	0.732500	0.052800	0.174600
C521	C52	0.769000	0.118500	0.177700
C531	C53	0.843100	0.122900	0.193500
C541	C54	0.879900	0.063000	0.206200
C551	C55	0.949500	0.194200	0.165800
C561	C56	0.863000	0.262600	0.235000
C571	C57	0.510500	0.559600	0.869400
C581	C58	0.490100	0.634100	0.901700
C591	C59	0.503800	0.681500	0.862600
C601	C60	0.540600	0.654100	0.793500
C611	C61	0.562300	0.579700	0.765000
C621	C62	0.564200	0.686100	0.673200
C631	C63	0.575600	0.777800	0.782500
C641	C64	0.357000	0.181000	0.632300
C651	C65	0.325500	0.135400	0.513600
C661	C66	0.262200	0.078100	0.598000
C671	C67	0.255800	0.005800	0.546900
C681	C68	0.202200	0.960900	0.562000
C691	C69	0.159100	0.988500	0.625800
C701	C70	0.217800	0.103400	0.662200
C711	C71	0.840700	0.581800	0.887800
C721	C72	0.813100	0.628400	0.009500
C731	C73	0.741100	0.515400	0.932600
C741	C74	0.730400	0.482800	0.987000
C751	C75	0.677400	0.428300	0.972200
C761	C76	0.636800	0.407900	0.905900
C771	C77	0.698000	0.493900	0.866700
C781	C78	0.727300	0.996400	0.687000
C791	C79	0.767500	0.052800	0.674600
C801	C80	0.731000	0.118500	0.677700
C811	C81	0.656900	0.122900	0.693500
C821	C82	0.620100	0.063000	0.706200
C831	C83	0.550500	0.194200	0.665800
C841	C84	0.637000	0.262600	0.735000
C851	C85	0.010500	0.440400	0.630600
C861	C86	0.990100	0.365900	0.598300
C871	C87	0.003800	0.318500	0.637400
C881	C88	0.040600	0.345900	0.706500
C891	C89	0.062300	0.420300	0.735000
C901	C90	0.064200	0.313900	0.826800
C911	C91	0.075600	0.222200	0.717500
C921	C92	0.857000	0.819000	0.867700
C931	C93	0.825500	0.864600	0.986400
C941	C94	0.762200	0.921900	0.902000
C951	C95	0.755800	0.994200	0.953100
C961	C96	0.702200	0.039100	0.938000
C971	C97	0.659100	0.011500	0.874200
C981	C98	0.717800	0.896600	0.837800
C991	C99	0.340700	0.418200	0.612200
C1001	C100	0.313100	0.371600	0.490500
C1011	C101	0.241100	0.484600	0.567400
C1021	C102	0.230400	0.517200	0.513000
C1031	C103	0.177400	0.571700	0.527800
C1041	C104	0.136800	0.592100	0.594100
C1051	C105	0.198000	0.506100	0.633300
C1061	C106	0.227300	0.003600	0.813000
C1071	C107	0.267500	0.947200	0.825400
C1081	C108	0.231000	0.881500	0.822300
C1091	C109	0.156900	0.877100	0.806500
C1101	C110	0.120100	0.937000	0.793800
C1111	C111	0.050500	0.805800	0.834200
C1121	C112	0.137000	0.737400	0.765000
N11	N1	0.453900	0.467600	0.197500
N21	N2	0.440200	0.296300	0.248600
N31	N3	0.419500	0.253600	0.341300
N41	N4	0.411700	0.195400	0.272400
N51	N5	0.606400	0.781900	0.403600
N61	N6	0.626200	0.811600	0.479900
N71	N7	0.686300	0.871100	0.416900
N81	N8	0.833200	0.942200	0.323400
N91	N9	0.117100	0.359000	0.080500
N101	N10	0.134800	0.329000	0.003100
N111	N11	0.204400	0.427600	0.057200
N121	N12	0.354400	0.559400	0.146700
N131	N13	0.343900	0.999100	0.297000
N141	N14	0.383900	0.810500	0.301900
N151	N15	0.467500	0.735100	0.319300
N161	N16	0.411100	0.691800	0.275600
N171	N17	0.953900	0.532400	0.302500
N181	N18	0.940200	0.703700	0.251400
N191	N19	0.919500	0.746400	0.158700
N201	N20	0.911700	0.804600	0.227600
N211	N21	0.106400	0.218100	0.096400
N221	N22	0.126200	0.188400	0.020100
N231	N23	0.186300	0.128900	0.083100
N241	N24	0.333200	0.057800	0.176600
N251	N25	0.617100	0.641000	0.419500
N261	N26	0.634800	0.671000	0.496900
N271	N27	0.704400	0.572400	0.442800
N281	N28	0.854400	0.440600	0.353300
N291	N29	0.843900	0.000900	0.203000
N301	N30	0.883900	0.189500	0.198100
N311	N31	0.967500	0.264900	0.180700
N321	N32	0.911100	0.308200	0.224400
N331	N33	0.546100	0.532400	0.802500
N341	N34	0.559800	0.703700	0.751400
N351	N35	0.580500	0.746400	0.658700
N361	N36	0.588300	0.804600	0.727600
N371	N37	0.393600	0.218100	0.596400
N381	N38	0.373800	0.188400	0.520100
N391	N39	0.313700	0.128900	0.583100
N401	N40	0.166800	0.057800	0.676600
N411	N41	0.882900	0.641000	0.919500
N421	N42	0.865200	0.671000	0.996900
N431	N43	0.795600	0.572400	0.942800
N441	N44	0.645600	0.440600	0.853300
N451	N45	0.656100	0.000900	0.703000
N461	N46	0.616100	0.189500	0.698100
N471	N47	0.532500	0.264900	0.680700
N481	N48	0.588900	0.308200	0.724400
N491	N49	0.046100	0.467600	0.697500
N501	N50	0.059800	0.296300	0.748600
N511	N51	0.080500	0.253600	0.841300
N521	N52	0.088300	0.195400	0.772400
N531	N53	0.893600	0.781900	0.903600
N541	N54	0.873800	0.811600	0.979900
N551	N55	0.813700	0.871100	0.916900
N561	N56	0.666800	0.942200	0.823400
N571	N57	0.382900	0.359000	0.580500
N581	N58	0.365200	0.329000	0.503100
N591	N59	0.295600	0.427600	0.557200
N601	N60	0.145600	0.559400	0.646700
N611	N61	0.156100	0.999100	0.797000
N621	N62	0.116100	0.810500	0.801900
N631	N63	0.032500	0.735100	0.819300
N641	N64	0.088900	0.691800	0.775600
O11	O1	0.494100	0.596200	0.320900
O21	O2	0.434400	0.129600	0.374700
O31	O3	0.495400	0.036000	0.219500
O41	O4	0.994100	0.403800	0.179100
O51	O5	0.934400	0.870400	0.125300
O61	O6	0.995400	0.964000	0.280500
O71	O7	0.505900	0.403800	0.679100
O81	O8	0.565600	0.870400	0.625300
O91	O9	0.504600	0.964000	0.780500
O101	O10	0.005900	0.596200	0.820900
O111	O11	0.065600	0.129600	0.874700
O121	O12	0.004600	0.036000	0.719500
Si11	Si1	0.554700	0.201900	0.907600
F11	F1	0.522700	0.251600	0.860100
F21	F2	0.633700	0.181400	0.865800
F31	F3	0.516300	0.124600	0.857500
F41	F4	0.579400	0.161800	0.970900
F51	F5	0.474900	0.221600	0.958300
F61	F6	0.602000	0.271400	0.968700
Si21	Si2	0.725520	0.630680	0.213470
F71	F7	0.765700	0.627300	0.293000
F81	F8	0.803300	0.597200	0.164000
F91	F9	0.694700	0.542800	0.196100
F101	F10	0.686800	0.630100	0.132600
F111	F11	0.755800	0.717900	0.231400
F121	F12	0.645700	0.661700	0.260900
Si31	Si3	0.054700	0.798100	0.592400
F131	F13	0.022700	0.748400	0.639900
F141	F14	0.133700	0.818600	0.634200
F151	F15	0.016300	0.875400	0.642500
F161	F16	0.079400	0.838200	0.529100
F171	F17	0.974900	0.778400	0.541700
F181	F18	0.102000	0.728600	0.531300
Si41	Si4	0.225520	0.369320	0.286530
F191	F19	0.265700	0.372700	0.207000
F201	F20	0.303300	0.402800	0.336000
F211	F21	0.194700	0.457200	0.303900
F221	F22	0.186800	0.369900	0.367400
F231	F23	0.255800	0.282100	0.268600
F241	F24	0.145700	0.338300	0.239100
Si51	Si5	0.445300	0.798100	0.092400
F251	F25	0.477300	0.748400	0.139900
F261	F26	0.366300	0.818600	0.134200
F271	F27	0.483700	0.875400	0.142500
F281	F28	0.420600	0.838200	0.029100
F291	F29	0.525100	0.778400	0.041700
F301	F30	0.398000	0.728600	0.031300
Si61	Si6	0.274480	0.369320	0.786530
F311	F31	0.234300	0.372700	0.707000
F321	F32	0.196700	0.402800	0.836000
F331	F33	0.305300	0.457200	0.803900
F341	F34	0.313200	0.369900	0.867400
F351	F35	0.244200	0.282100	0.768600
F361	F36	0.354300	0.338300	0.739100
Si71	Si7	0.945300	0.201900	0.407600
F371	F37	0.977300	0.251600	0.360100
F381	F38	0.866300	0.181400	0.365800
F391	F39	0.983700	0.124600	0.357500
F401	F40	0.920600	0.161800	0.470900
F411	F41	0.025100	0.221600	0.458300
F421	F42	0.898000	0.271400	0.468700
Si81	Si8	0.774480	0.630680	0.713470
F431	F43	0.734300	0.627300	0.793000
F441	F44	0.696700	0.597200	0.664000
F451	F45	0.805300	0.542800	0.696100
F461	F46	0.813200	0.630100	0.632600
F471	F47	0.744200	0.717900	0.731400
F481	F48	0.854300	0.661700	0.760900
Si91	Si9	0.500000	0.000000	0.500000
F491	F49	0.482300	0.919400	0.513700
F501	F50	0.581500	0.006200	0.542000
F511	F51	0.461400	0.048300	0.585100
F521	F52	0.517700	0.080600	0.486300
F531	F53	0.418500	0.993800	0.458000
F541	F54	0.538600	0.951700	0.414900
Si101	Si10	0.000000	0.000000	0.000000
F551	F55	0.982300	0.080600	0.986300
F561	F56	0.081500	0.993800	0.958000
F571	F57	0.961400	0.951700	0.914900
F581	F58	0.017700	0.919400	0.013700
F591	F59	0.918500	0.006200	0.042000
F601	F60	0.038600	0.048300	0.085100
Si111	Si11	0.000000	0.500000	0.000000
F611	F61	0.989000	0.490700	0.906000
F621	F62	0.090400	0.494300	0.987500
F631	F63	0.994400	0.406400	0.977600
F641	F64	0.011000	0.509300	0.094000
F651	F65	0.909600	0.505700	0.012500
F661	F66	0.005600	0.593600	0.022400
Si121	Si12	0.500000	0.500000	0.500000
F671	F67	0.489000	0.509300	0.594000
F681	F68	0.590400	0.505700	0.512500
F691	F69	0.494400	0.593600	0.522400
F701	F70	0.511000	0.490700	0.406000
F711	F71	0.409600	0.494300	0.487500
F721	F72	0.505600	0.406400	0.477600
