data_YUQNAB_clean_PM
_symmetry_space_group_name_H-M	'P1'
_cell_length_a	20.904900
_cell_length_b	14.680800
_cell_length_c	14.251500
_cell_angle_alpha	90.000000
_cell_angle_beta	108.043000
_cell_angle_gamma	90.000000
_symmetry_Int_Tables_number 1

loop_
_symmetry_equiv_pos_as_xyz
'x,y,z'

loop_
_atom_site_label
_atom_site_type_symbol
_atom_site_fract_x
_atom_site_fract_y
_atom_site_fract_z
Ag11	Ag1	0.679450	0.167160	0.709140
N11	N1	0.779970	0.096600	0.781100
N21	N2	0.050150	0.393500	0.172700
N31	N3	0.377680	0.968400	0.323800
N41	N4	0.653220	0.758200	0.340700
S11	S1	0.099090	0.801670	0.856820
S21	S2	0.652480	0.293120	0.586380
C11	C1	0.828320	0.055800	0.801800
C21	C2	0.889970	0.003900	0.834200
C31	C3	0.950730	0.044600	0.838000
H11	H1	0.951900	0.105200	0.815100
C41	C4	0.009270	0.995600	0.875500
H21	H2	0.051100	0.022900	0.879000
C51	C5	0.007850	0.907400	0.908200
C61	C6	0.946710	0.867200	0.902200
H31	H3	0.945500	0.806100	0.923400
C71	C7	0.888000	0.915200	0.865900
H41	H4	0.846200	0.887700	0.862400
C81	C8	0.072010	0.855300	0.952400
H51	H5	0.064900	0.808200	0.997900
H61	H6	0.107500	0.897300	0.991000
C91	C9	0.165670	0.728100	0.932700
H71	H7	0.189100	0.698900	0.890000
H81	H8	0.198900	0.766200	0.981600
C101	C10	0.140680	0.655500	0.986400
C111	C11	0.141020	0.667800	0.083100
H91	H9	0.158300	0.722900	0.116300
C121	C12	0.116780	0.601500	0.132000
H101	H10	0.116100	0.611300	0.197600
C131	C13	0.093370	0.520300	0.083500
C141	C14	0.093770	0.505500	0.987600
H111	H11	0.078100	0.449500	0.955200
C151	C15	0.117230	0.573300	0.940000
H121	H12	0.117400	0.563700	0.874200
C161	C16	0.069000	0.449400	0.133300
C171	C17	0.405730	0.029700	0.363900
C181	C18	0.443600	0.106400	0.415200
C191	C19	0.467120	0.171100	0.363300
H131	H13	0.456500	0.166500	0.293600
C201	C20	0.505960	0.242200	0.413100
H141	H14	0.522200	0.286600	0.377600
C211	C21	0.521570	0.249700	0.515000
C221	C22	0.496900	0.185600	0.565900
H151	H15	0.506900	0.190900	0.635400
C231	C23	0.457790	0.113700	0.516700
H161	H16	0.440900	0.069900	0.552100
C241	C24	0.565480	0.325700	0.569000
H171	H17	0.558300	0.335900	0.633700
H181	H18	0.554600	0.382800	0.530300
C251	C25	0.694510	0.393400	0.651500
H191	H19	0.676600	0.407500	0.706500
H201	H20	0.743200	0.380900	0.679800
C261	C26	0.684390	0.474000	0.584000
C271	C27	0.716630	0.477300	0.512300
H211	H21	0.745100	0.428500	0.506900
C281	C28	0.707800	0.550400	0.449000
H221	H22	0.729800	0.552100	0.399900
C291	C29	0.666500	0.621300	0.457700
C301	C30	0.633640	0.618800	0.528400
H231	H23	0.605200	0.667700	0.533800
C311	C31	0.642520	0.545100	0.590800
H241	H24	0.619700	0.542900	0.638900
C321	C32	0.657920	0.698200	0.392200
Ag21	Ag2	0.320550	0.167160	0.790860
N51	N5	0.220030	0.096600	0.718900
N61	N6	0.949850	0.393500	0.327300
N71	N7	0.622320	0.968400	0.176200
N81	N8	0.346780	0.758200	0.159300
S31	S3	0.900910	0.801670	0.643180
S41	S4	0.347520	0.293120	0.913620
C331	C33	0.171680	0.055800	0.698200
C341	C34	0.110030	0.003900	0.665800
C351	C35	0.049270	0.044600	0.662000
H251	H25	0.048100	0.105200	0.684900
C361	C36	0.990730	0.995600	0.624500
H261	H26	0.948900	0.022900	0.621000
C371	C37	0.992150	0.907400	0.591800
C381	C38	0.053290	0.867200	0.597800
H271	H27	0.054500	0.806100	0.576600
C391	C39	0.112000	0.915200	0.634100
H281	H28	0.153800	0.887700	0.637600
C401	C40	0.927990	0.855300	0.547600
H291	H29	0.935100	0.808200	0.502100
H301	H30	0.892500	0.897300	0.509000
C411	C41	0.834330	0.728100	0.567300
H311	H31	0.810900	0.698900	0.610000
H321	H32	0.801100	0.766200	0.518400
C421	C42	0.859320	0.655500	0.513600
C431	C43	0.858980	0.667800	0.416900
H331	H33	0.841700	0.722900	0.383700
C441	C44	0.883220	0.601500	0.368000
H341	H34	0.883900	0.611300	0.302400
C451	C45	0.906630	0.520300	0.416500
C461	C46	0.906230	0.505500	0.512400
H351	H35	0.921900	0.449500	0.544800
C471	C47	0.882770	0.573300	0.560000
H361	H36	0.882600	0.563700	0.625800
C481	C48	0.931000	0.449400	0.366700
C491	C49	0.594270	0.029700	0.136100
C501	C50	0.556400	0.106400	0.084800
C511	C51	0.532880	0.171100	0.136700
H371	H37	0.543500	0.166500	0.206400
C521	C52	0.494040	0.242200	0.086900
H381	H38	0.477800	0.286600	0.122400
C531	C53	0.478430	0.249700	0.985000
C541	C54	0.503100	0.185600	0.934100
H391	H39	0.493100	0.190900	0.864600
C551	C55	0.542210	0.113700	0.983300
H401	H40	0.559100	0.069900	0.947900
C561	C56	0.434520	0.325700	0.931000
H411	H41	0.441700	0.335900	0.866300
H421	H42	0.445400	0.382800	0.969700
C571	C57	0.305490	0.393400	0.848500
H431	H43	0.323400	0.407500	0.793500
H441	H44	0.256800	0.380900	0.820200
C581	C58	0.315610	0.474000	0.916000
C591	C59	0.283370	0.477300	0.987700
H451	H45	0.254900	0.428500	0.993100
C601	C60	0.292200	0.550400	0.051000
H461	H46	0.270200	0.552100	0.100100
C611	C61	0.333500	0.621300	0.042300
C621	C62	0.366360	0.618800	0.971600
H471	H47	0.394800	0.667700	0.966200
C631	C63	0.357480	0.545100	0.909200
H481	H48	0.380300	0.542900	0.861100
C641	C64	0.342080	0.698200	0.107800
Ag31	Ag3	0.320550	0.832840	0.290860
N91	N9	0.220030	0.903400	0.218900
N101	N10	0.949850	0.606500	0.827300
N111	N11	0.622320	0.031600	0.676200
N121	N12	0.346780	0.241800	0.659300
S51	S5	0.900910	0.198330	0.143180
S61	S6	0.347520	0.706880	0.413620
C651	C65	0.171680	0.944200	0.198200
C661	C66	0.110030	0.996100	0.165800
C671	C67	0.049270	0.955400	0.162000
H491	H49	0.048100	0.894800	0.184900
C681	C68	0.990730	0.004400	0.124500
H501	H50	0.948900	0.977100	0.121000
C691	C69	0.992150	0.092600	0.091800
C701	C70	0.053290	0.132800	0.097800
H511	H51	0.054500	0.193900	0.076600
C711	C71	0.112000	0.084800	0.134100
H521	H52	0.153800	0.112300	0.137600
C721	C72	0.927990	0.144700	0.047600
H531	H53	0.935100	0.191800	0.002100
H541	H54	0.892500	0.102700	0.009000
C731	C73	0.834330	0.271900	0.067300
H551	H55	0.810900	0.301100	0.110000
H561	H56	0.801100	0.233800	0.018400
C741	C74	0.859320	0.344500	0.013600
C751	C75	0.858980	0.332200	0.916900
H571	H57	0.841700	0.277100	0.883700
C761	C76	0.883220	0.398500	0.868000
H581	H58	0.883900	0.388700	0.802400
C771	C77	0.906630	0.479700	0.916500
C781	C78	0.906230	0.494500	0.012400
H591	H59	0.921900	0.550500	0.044800
C791	C79	0.882770	0.426700	0.060000
H601	H60	0.882600	0.436300	0.125800
C801	C80	0.931000	0.550600	0.866700
C811	C81	0.594270	0.970300	0.636100
C821	C82	0.556400	0.893600	0.584800
C831	C83	0.532880	0.828900	0.636700
H611	H61	0.543500	0.833500	0.706400
C841	C84	0.494040	0.757800	0.586900
H621	H62	0.477800	0.713400	0.622400
C851	C85	0.478430	0.750300	0.485000
C861	C86	0.503100	0.814400	0.434100
H631	H63	0.493100	0.809100	0.364600
C871	C87	0.542210	0.886300	0.483300
H641	H64	0.559100	0.930100	0.447900
C881	C88	0.434520	0.674300	0.431000
H651	H65	0.441700	0.664100	0.366300
H661	H66	0.445400	0.617200	0.469700
C891	C89	0.305490	0.606600	0.348500
H671	H67	0.323400	0.592500	0.293500
H681	H68	0.256800	0.619100	0.320200
C901	C90	0.315610	0.526000	0.416000
C911	C91	0.283370	0.522700	0.487700
H691	H69	0.254900	0.571500	0.493100
C921	C92	0.292200	0.449600	0.551000
H701	H70	0.270200	0.447900	0.600100
C931	C93	0.333500	0.378700	0.542300
C941	C94	0.366360	0.381200	0.471600
H711	H71	0.394800	0.332300	0.466200
C951	C95	0.357480	0.454900	0.409200
H721	H72	0.380300	0.457100	0.361100
C961	C96	0.342080	0.301800	0.607800
Ag41	Ag4	0.679450	0.832840	0.209140
N131	N13	0.779970	0.903400	0.281100
N141	N14	0.050150	0.606500	0.672700
N151	N15	0.377680	0.031600	0.823800
N161	N16	0.653220	0.241800	0.840700
S71	S7	0.099090	0.198330	0.356820
S81	S8	0.652480	0.706880	0.086380
C971	C97	0.828320	0.944200	0.301800
C981	C98	0.889970	0.996100	0.334200
C991	C99	0.950730	0.955400	0.338000
H731	H73	0.951900	0.894800	0.315100
C1001	C100	0.009270	0.004400	0.375500
H741	H74	0.051100	0.977100	0.379000
C1011	C101	0.007850	0.092600	0.408200
C1021	C102	0.946710	0.132800	0.402200
H751	H75	0.945500	0.193900	0.423400
C1031	C103	0.888000	0.084800	0.365900
H761	H76	0.846200	0.112300	0.362400
C1041	C104	0.072010	0.144700	0.452400
H771	H77	0.064900	0.191800	0.497900
H781	H78	0.107500	0.102700	0.491000
C1051	C105	0.165670	0.271900	0.432700
H791	H79	0.189100	0.301100	0.390000
H801	H80	0.198900	0.233800	0.481600
C1061	C106	0.140680	0.344500	0.486400
C1071	C107	0.141020	0.332200	0.583100
H811	H81	0.158300	0.277100	0.616300
C1081	C108	0.116780	0.398500	0.632000
H821	H82	0.116100	0.388700	0.697600
C1091	C109	0.093370	0.479700	0.583500
C1101	C110	0.093770	0.494500	0.487600
H831	H83	0.078100	0.550500	0.455200
C1111	C111	0.117230	0.426700	0.440000
H841	H84	0.117400	0.436300	0.374200
C1121	C112	0.069000	0.550600	0.633300
C1131	C113	0.405730	0.970300	0.863900
C1141	C114	0.443600	0.893600	0.915200
C1151	C115	0.467120	0.828900	0.863300
H851	H85	0.456500	0.833500	0.793600
C1161	C116	0.505960	0.757800	0.913100
H861	H86	0.522200	0.713400	0.877600
C1171	C117	0.521570	0.750300	0.015000
C1181	C118	0.496900	0.814400	0.065900
H871	H87	0.506900	0.809100	0.135400
C1191	C119	0.457790	0.886300	0.016700
H881	H88	0.440900	0.930100	0.052100
C1201	C120	0.565480	0.674300	0.069000
H891	H89	0.558300	0.664100	0.133700
H901	H90	0.554600	0.617200	0.030300
C1211	C121	0.694510	0.606600	0.151500
H911	H91	0.676600	0.592500	0.206500
H921	H92	0.743200	0.619100	0.179800
C1221	C122	0.684390	0.526000	0.084000
C1231	C123	0.716630	0.522700	0.012300
H931	H93	0.745100	0.571500	0.006900
C1241	C124	0.707800	0.449600	0.949000
H941	H94	0.729800	0.447900	0.899900
C1251	C125	0.666500	0.378700	0.957700
C1261	C126	0.633640	0.381200	0.028400
H951	H95	0.605200	0.332300	0.033800
C1271	C127	0.642520	0.454900	0.090800
H961	H96	0.619700	0.457100	0.138900
C1281	C128	0.657920	0.301800	0.892200
Ag51	Ag5	0.000000	0.711520	0.750000
Ag61	Ag6	0.000000	0.288480	0.250000
