data_YURKEC_clean_PM
_symmetry_space_group_name_H-M	'P1'
_cell_length_a	16.785300
_cell_length_b	19.501100
_cell_length_c	24.295000
_cell_angle_alpha	112.891000
_cell_angle_beta	90.000000
_cell_angle_gamma	90.000000
_symmetry_Int_Tables_number 1

loop_
_symmetry_equiv_pos_as_xyz
'x,y,z'

loop_
_atom_site_label
_atom_site_type_symbol
_atom_site_fract_x
_atom_site_fract_y
_atom_site_fract_z
La11	La1	0.515800	0.886800	0.968510
La21	La2	0.521950	0.617550	0.019120
La31	La3	0.015800	0.613200	0.531490
La41	La4	0.021950	0.882440	0.480880
La51	La5	0.484200	0.113200	0.031490
La61	La6	0.478050	0.382440	0.980880
La71	La7	0.984200	0.386800	0.468510
La81	La8	0.978050	0.117550	0.519120
H11	H1	0.486700	0.537300	0.840000
H21	H2	0.307700	0.079900	0.322800
H31	H3	0.396100	0.026200	0.227500
H41	H4	0.239200	0.153900	0.763500
H51	H5	0.421500	0.467900	0.751600
H61	H6	0.331600	0.410600	0.657300
H71	H7	0.464500	0.958800	0.140000
H81	H8	0.217200	0.104900	0.401200
H91	H9	0.328200	0.869300	0.794500
H101	H10	0.315400	0.125300	0.840000
H111	H11	0.394900	0.727200	0.837400
H121	H12	0.139600	0.936300	0.613300
H131	H13	0.397400	0.765800	0.151000
H141	H14	0.160500	0.160200	0.687300
H151	H15	0.242600	0.380800	0.578700
H161	H16	0.202400	0.886400	0.369300
H171	H17	0.383200	0.080900	0.902400
H181	H18	0.196400	0.599100	0.621400
H191	H19	0.986700	0.962700	0.660000
H201	H20	0.807700	0.420100	0.177200
H211	H21	0.896100	0.473800	0.272500
H221	H22	0.739200	0.346100	0.736500
H231	H23	0.921500	0.032100	0.748400
H241	H24	0.831600	0.089400	0.842700
H251	H25	0.964500	0.541200	0.360000
H261	H26	0.717200	0.395100	0.098800
H271	H27	0.828200	0.630700	0.705500
H281	H28	0.815400	0.374700	0.660000
H291	H29	0.894900	0.772800	0.662600
H301	H30	0.639600	0.563700	0.886700
H311	H31	0.897400	0.734200	0.349000
H321	H32	0.660500	0.339800	0.812700
H331	H33	0.742600	0.119200	0.921300
H341	H34	0.702400	0.613600	0.130700
H351	H35	0.883200	0.419100	0.597600
H361	H36	0.696400	0.900900	0.878600
H371	H37	0.513300	0.462700	0.160000
H381	H38	0.692300	0.920100	0.677200
H391	H39	0.603900	0.973800	0.772500
H401	H40	0.760800	0.846100	0.236500
H411	H41	0.578500	0.532100	0.248400
H421	H42	0.668400	0.589400	0.342700
H431	H43	0.535500	0.041200	0.860000
H441	H44	0.782800	0.895100	0.598800
H451	H45	0.671800	0.130700	0.205500
H461	H46	0.684600	0.874700	0.160000
H471	H47	0.605100	0.272800	0.162600
H481	H48	0.860400	0.063700	0.386700
H491	H49	0.602600	0.234200	0.849000
H501	H50	0.839500	0.839800	0.312700
H511	H51	0.757400	0.619200	0.421300
H521	H52	0.797600	0.113600	0.630700
H531	H53	0.616800	0.919100	0.097600
H541	H54	0.803600	0.400900	0.378600
H551	H55	0.013300	0.037300	0.340000
H561	H56	0.192300	0.579900	0.822800
H571	H57	0.103900	0.526200	0.727500
H581	H58	0.260800	0.653900	0.263500
H591	H59	0.078500	0.967900	0.251600
H601	H60	0.168400	0.910600	0.157300
H611	H61	0.035500	0.458800	0.640000
H621	H62	0.282800	0.604900	0.901200
H631	H63	0.171800	0.369300	0.294500
H641	H64	0.184600	0.625300	0.340000
H651	H65	0.105100	0.227200	0.337400
H661	H66	0.360400	0.436300	0.113300
H671	H67	0.102600	0.265800	0.651000
H681	H68	0.339500	0.660200	0.187300
H691	H69	0.257400	0.880800	0.078700
H701	H70	0.297600	0.386400	0.869300
H711	H71	0.116800	0.580900	0.402400
H721	H72	0.303600	0.099100	0.121400
C11	C1	0.492000	0.684100	0.904100
C21	C2	0.448900	0.639100	0.847500
C31	C3	0.455200	0.561400	0.821600
C41	C4	0.355900	0.937900	0.242700
C51	C5	0.285900	0.041200	0.331200
C61	C6	0.435600	0.855500	0.135300
C71	C7	0.396000	0.974400	0.212600
C81	C8	0.219300	0.110700	0.733900
C91	C9	0.415300	0.519300	0.768800
C101	C10	0.282100	0.024300	0.779100
C111	C11	0.304200	0.448100	0.650600
C121	C12	0.141200	0.050000	0.643000
C131	C13	0.206500	0.978000	0.688300
C141	C14	0.436500	0.933700	0.159500
C151	C15	0.305800	0.968000	0.297000
C161	C16	0.236000	0.041500	0.734600
C171	C17	0.366200	0.555000	0.742200
C181	C18	0.232200	0.056000	0.378800
C191	C19	0.327000	0.920200	0.803500
C201	C20	0.209400	0.486700	0.591800
C211	C21	0.318400	0.074400	0.830700
C221	C22	0.400300	0.675700	0.820800
C231	C23	0.159100	0.979700	0.642800
C241	C24	0.397100	0.817500	0.165700
C251	C25	0.315900	0.522200	0.687900
C261	C26	0.200700	0.998800	0.393300
C271	C27	0.358400	0.858700	0.218400
C281	C28	0.364300	0.970200	0.854300
C291	C29	0.172100	0.114000	0.688100
C301	C30	0.138500	0.012900	0.441600
C311	C31	0.287900	0.948400	0.766500
C321	C32	0.088100	0.059900	0.596900
C331	C33	0.360800	0.633100	0.769300
C341	C34	0.274000	0.576900	0.675400
C351	C35	0.273300	0.911900	0.312700
C361	C36	0.146700	0.470200	0.544700
C371	C37	0.251000	0.430400	0.603300
C381	C38	0.222000	0.925100	0.360000
C391	C39	0.359100	0.047500	0.868000
C401	C40	0.411600	0.944000	0.895100
C411	C41	0.222300	0.561200	0.628500
C421	C42	0.473900	0.812900	0.076100
C431	C43	0.992000	0.815900	0.595900
C441	C44	0.948900	0.860900	0.652500
C451	C45	0.955200	0.938600	0.678400
C461	C46	0.855900	0.562100	0.257300
C471	C47	0.785900	0.458800	0.168800
C481	C48	0.935600	0.644500	0.364700
C491	C49	0.896000	0.525600	0.287400
C501	C50	0.719300	0.389300	0.766100
C511	C51	0.915300	0.980700	0.731200
C521	C52	0.782100	0.475700	0.720900
C531	C53	0.804200	0.051900	0.849400
C541	C54	0.641200	0.450000	0.857000
C551	C55	0.706500	0.522000	0.811700
C561	C56	0.936500	0.566300	0.340500
C571	C57	0.805800	0.532000	0.203000
C581	C58	0.736000	0.458500	0.765400
C591	C59	0.866200	0.945000	0.757800
C601	C60	0.732200	0.444000	0.121200
C611	C61	0.827000	0.579800	0.696500
C621	C62	0.709400	0.013300	0.908200
C631	C63	0.818400	0.425600	0.669300
C641	C64	0.900300	0.824300	0.679200
C651	C65	0.659100	0.520300	0.857200
C661	C66	0.897100	0.682500	0.334300
C671	C67	0.815900	0.977800	0.812100
C681	C68	0.700700	0.501200	0.106700
C691	C69	0.858400	0.641300	0.281600
C701	C70	0.864300	0.529800	0.645700
C711	C71	0.672100	0.386000	0.811900
C721	C72	0.638500	0.487100	0.058400
C731	C73	0.787900	0.551600	0.733500
C741	C74	0.588100	0.440100	0.903100
C751	C75	0.860800	0.866900	0.730700
C761	C76	0.774000	0.923100	0.824600
C771	C77	0.773300	0.588100	0.187300
C781	C78	0.646700	0.029800	0.955300
C791	C79	0.751000	0.069600	0.896700
C801	C80	0.722000	0.574900	0.140000
C811	C81	0.859100	0.452500	0.632000
C821	C82	0.911600	0.556000	0.604900
C831	C83	0.722300	0.938800	0.871500
C841	C84	0.973900	0.687100	0.423900
C851	C85	0.508000	0.315900	0.095900
C861	C86	0.551100	0.360900	0.152500
C871	C87	0.544800	0.438600	0.178400
C881	C88	0.644100	0.062100	0.757300
C891	C89	0.714100	0.958800	0.668800
C901	C90	0.564400	0.144500	0.864700
C911	C91	0.604000	0.025600	0.787400
C921	C92	0.780700	0.889300	0.266100
C931	C93	0.584700	0.480700	0.231200
C941	C94	0.717900	0.975700	0.220900
C951	C95	0.695800	0.551900	0.349400
C961	C96	0.858800	0.950000	0.357000
C971	C97	0.793500	0.022000	0.311700
C981	C98	0.563500	0.066300	0.840500
C991	C99	0.694200	0.032000	0.703000
C1001	C100	0.764000	0.958500	0.265400
C1011	C101	0.633800	0.445000	0.257800
C1021	C102	0.767800	0.944000	0.621200
C1031	C103	0.673000	0.079800	0.196500
C1041	C104	0.790600	0.513300	0.408200
C1051	C105	0.681600	0.925600	0.169300
C1061	C106	0.599700	0.324300	0.179200
C1071	C107	0.840900	0.020300	0.357200
C1081	C108	0.602900	0.182500	0.834300
C1091	C109	0.684100	0.477800	0.312100
C1101	C110	0.799300	0.001200	0.606700
C1111	C111	0.641600	0.141300	0.781600
C1121	C112	0.635700	0.029800	0.145700
C1131	C113	0.827900	0.886000	0.311900
C1141	C114	0.861500	0.987100	0.558400
C1151	C115	0.712100	0.051600	0.233500
C1161	C116	0.911900	0.940100	0.403100
C1171	C117	0.639200	0.366900	0.230700
C1181	C118	0.726000	0.423100	0.324600
C1191	C119	0.726700	0.088100	0.687300
C1201	C120	0.853300	0.529800	0.455300
C1211	C121	0.749000	0.569600	0.396700
C1221	C122	0.778000	0.074900	0.640000
C1231	C123	0.640900	0.952500	0.132000
C1241	C124	0.588400	0.056000	0.104900
C1251	C125	0.777700	0.438800	0.371500
C1261	C126	0.526100	0.187100	0.923900
C1271	C127	0.008000	0.184100	0.404100
C1281	C128	0.051100	0.139100	0.347500
C1291	C129	0.044800	0.061400	0.321600
C1301	C130	0.144100	0.437900	0.742700
C1311	C131	0.214100	0.541200	0.831200
C1321	C132	0.064400	0.355500	0.635300
C1331	C133	0.104000	0.474400	0.712600
C1341	C134	0.280700	0.610700	0.233900
C1351	C135	0.084700	0.019300	0.268800
C1361	C136	0.217900	0.524300	0.279100
C1371	C137	0.195800	0.948100	0.150600
C1381	C138	0.358800	0.550000	0.143000
C1391	C139	0.293500	0.478000	0.188300
C1401	C140	0.063500	0.433700	0.659500
C1411	C141	0.194200	0.468000	0.797000
C1421	C142	0.264000	0.541500	0.234600
C1431	C143	0.133800	0.055000	0.242200
C1441	C144	0.267800	0.556000	0.878800
C1451	C145	0.173000	0.420200	0.303500
C1461	C146	0.290600	0.986700	0.091800
C1471	C147	0.181600	0.574400	0.330700
C1481	C148	0.099700	0.175700	0.320800
C1491	C149	0.340900	0.479700	0.142800
C1501	C150	0.102900	0.317500	0.665700
C1511	C151	0.184100	0.022200	0.187900
C1521	C152	0.299300	0.498800	0.893300
C1531	C153	0.141600	0.358700	0.718400
C1541	C154	0.135700	0.470200	0.354300
C1551	C155	0.327900	0.614000	0.188100
C1561	C156	0.361500	0.512900	0.941600
C1571	C157	0.212100	0.448400	0.266500
C1581	C158	0.411900	0.559900	0.096900
C1591	C159	0.139200	0.133100	0.269300
C1601	C160	0.226000	0.076900	0.175400
C1611	C161	0.226700	0.411900	0.812700
C1621	C162	0.353300	0.970200	0.044700
C1631	C163	0.249000	0.930400	0.103300
C1641	C164	0.278000	0.425100	0.860000
C1651	C165	0.140900	0.547500	0.368000
C1661	C166	0.088400	0.444000	0.395100
C1671	C167	0.277700	0.061200	0.128500
C1681	C168	0.026100	0.312900	0.576100
S11	S1	0.237560	0.896540	0.698460
S21	S2	0.304000	0.822830	0.262970
S31	S3	0.293460	0.666810	0.729530
S41	S4	0.737560	0.603460	0.801540
S51	S5	0.804000	0.677170	0.237030
S61	S6	0.793460	0.833190	0.770470
S71	S7	0.762440	0.103460	0.301540
S81	S8	0.696000	0.177170	0.737030
S91	S9	0.706540	0.333190	0.270470
S101	S10	0.262440	0.396540	0.198460
S111	S11	0.196000	0.322830	0.762970
S121	S12	0.206540	0.166810	0.229530
O11	O1	0.516700	0.845900	0.051680
O21	O2	0.529300	0.650400	0.930660
O31	O3	0.404300	0.878300	0.890100
O41	O4	0.487600	0.753800	0.920400
O51	O5	0.108200	0.076700	0.464000
O61	O6	0.462100	0.742300	0.054700
O71	O7	0.085800	0.122100	0.594200
O81	O8	0.222400	0.696300	0.764500
O91	O9	0.236900	0.779200	0.230800
O101	O10	0.042300	0.008200	0.565900
O111	O11	0.333500	0.713400	0.704900
O121	O12	0.126100	0.960700	0.458800
O131	O13	0.170200	0.857700	0.709000
O141	O14	0.123000	0.404400	0.518200
O151	O15	0.356200	0.788800	0.292000
O161	O16	0.293300	0.854500	0.653000
O171	O17	0.460700	0.990300	0.932600
O181	O18	0.125900	0.530100	0.533900
O191	O19	0.016700	0.654100	0.448320
O201	O20	0.029300	0.849600	0.569340
O211	O21	0.904300	0.621700	0.609900
O221	O22	0.987600	0.746200	0.579600
O231	O23	0.608200	0.423300	0.036000
O241	O24	0.962100	0.757700	0.445300
O251	O25	0.585800	0.377900	0.905800
O261	O26	0.722400	0.803700	0.735500
O271	O27	0.736900	0.720800	0.269200
O281	O28	0.542300	0.491800	0.934100
O291	O29	0.833500	0.786600	0.795100
O301	O30	0.626100	0.539300	0.041200
O311	O31	0.670200	0.642300	0.791000
O321	O32	0.623000	0.095600	0.981800
O331	O33	0.856200	0.711200	0.208000
O341	O34	0.793300	0.645500	0.847000
O351	O35	0.960700	0.509700	0.567400
O361	O36	0.625900	0.969900	0.966100
O371	O37	0.483300	0.154100	0.948320
O381	O38	0.470700	0.349600	0.069340
O391	O39	0.595700	0.121700	0.109900
O401	O40	0.512400	0.246200	0.079600
O411	O41	0.891800	0.923300	0.536000
O421	O42	0.537900	0.257700	0.945300
O431	O43	0.914200	0.877900	0.405800
O441	O44	0.777600	0.303700	0.235500
O451	O45	0.763100	0.220800	0.769200
O461	O46	0.957700	0.991800	0.434100
O471	O47	0.666500	0.286600	0.295100
O481	O48	0.873900	0.039300	0.541200
O491	O49	0.829800	0.142300	0.291000
O501	O50	0.877000	0.595600	0.481800
O511	O51	0.643800	0.211200	0.708000
O521	O52	0.706700	0.145500	0.347000
O531	O53	0.539300	0.009700	0.067400
O541	O54	0.874100	0.469900	0.466100
O551	O55	0.983300	0.345900	0.551680
O561	O56	0.970700	0.150400	0.430660
O571	O57	0.095700	0.378300	0.390100
O581	O58	0.012400	0.253800	0.420400
O591	O59	0.391800	0.576700	0.964000
O601	O60	0.037900	0.242300	0.554700
O611	O61	0.414200	0.622100	0.094200
O621	O62	0.277600	0.196300	0.264500
O631	O63	0.263100	0.279200	0.730800
O641	O64	0.457700	0.508200	0.065900
O651	O65	0.166500	0.213400	0.204900
O661	O66	0.373900	0.460700	0.958800
O671	O67	0.329800	0.357700	0.209000
O681	O68	0.377000	0.904400	0.018200
O691	O69	0.143800	0.288800	0.792000
O701	O70	0.206700	0.354500	0.153000
O711	O71	0.039300	0.490300	0.432600
O721	O72	0.374100	0.030100	0.033900
