data_YUSWIU_clean_PM
_symmetry_space_group_name_H-M	'P1'
_cell_length_a	18.465000
_cell_length_b	9.244200
_cell_length_c	19.699000
_cell_angle_alpha	90.000000
_cell_angle_beta	102.180000
_cell_angle_gamma	90.000000
_symmetry_Int_Tables_number 1

loop_
_symmetry_equiv_pos_as_xyz
'x,y,z'

loop_
_atom_site_label
_atom_site_type_symbol
_atom_site_fract_x
_atom_site_fract_y
_atom_site_fract_z
Dy11	Dy1	0.020770	0.218450	0.995150
O11	O1	0.277000	0.983800	0.042400
C11	C1	0.248700	0.772500	0.086200
H11	H1	0.221800	0.697200	0.100200
O21	O2	0.130800	0.073100	0.008700
O31	O3	0.020500	0.149400	0.879500
O41	O4	0.098700	0.857300	0.045800
O51	O5	0.002700	0.937300	0.923900
O61	O6	0.465300	0.884700	0.057500
C21	C2	0.325900	0.776300	0.090500
H21	H2	0.359800	0.704100	0.108100
O71	O7	0.408000	0.099400	0.035400
C31	C3	0.221100	0.900900	0.057500
C41	C4	0.142300	0.947400	0.034800
C51	C5	0.341400	0.905800	0.063900
C61	C6	0.001700	0.951400	0.805300
C71	C7	0.409800	0.969800	0.051500
C81	C8	0.008300	0.017200	0.873800
C91	C9	0.000900	0.810800	0.786300
H31	H3	0.001400	0.730500	0.814900
Dy21	Dy2	0.520770	0.718450	0.995150
O81	O8	0.777000	0.483800	0.042400
C101	C10	0.748700	0.272500	0.086200
H41	H4	0.721800	0.197200	0.100200
O91	O9	0.630800	0.573100	0.008700
O101	O10	0.520500	0.649400	0.879500
O111	O11	0.598700	0.357300	0.045800
O121	O12	0.502700	0.437300	0.923900
O131	O13	0.965300	0.384700	0.057500
C111	C11	0.825900	0.276300	0.090500
H51	H5	0.859800	0.204100	0.108100
O141	O14	0.908000	0.599400	0.035400
C121	C12	0.721100	0.400900	0.057500
C131	C13	0.642300	0.447400	0.034800
C141	C14	0.841400	0.405800	0.063900
C151	C15	0.501700	0.451400	0.805300
C161	C16	0.909800	0.469800	0.051500
C171	C17	0.508300	0.517200	0.873800
C181	C18	0.500900	0.310800	0.786300
H61	H6	0.501400	0.230500	0.814900
Dy31	Dy3	0.979230	0.218450	0.504850
O151	O15	0.723000	0.983800	0.457600
C191	C19	0.751300	0.772500	0.413800
H71	H7	0.778200	0.697200	0.399800
O161	O16	0.869200	0.073100	0.491300
O171	O17	0.979500	0.149400	0.620500
O181	O18	0.901300	0.857300	0.454200
O191	O19	0.997300	0.937300	0.576100
O201	O20	0.534700	0.884700	0.442500
C201	C20	0.674100	0.776300	0.409500
H81	H8	0.640200	0.704100	0.391900
O211	O21	0.592000	0.099400	0.464600
C211	C21	0.778900	0.900900	0.442500
C221	C22	0.857700	0.947400	0.465200
C231	C23	0.658600	0.905800	0.436100
C241	C24	0.998300	0.951400	0.694700
C251	C25	0.590200	0.969800	0.448500
C261	C26	0.991700	0.017200	0.626200
C271	C27	0.999100	0.810800	0.713700
H91	H9	0.998600	0.730500	0.685100
Dy41	Dy4	0.479230	0.718450	0.504850
O221	O22	0.223000	0.483800	0.457600
C281	C28	0.251300	0.272500	0.413800
H101	H10	0.278200	0.197200	0.399800
O231	O23	0.369200	0.573100	0.491300
O241	O24	0.479500	0.649400	0.620500
O251	O25	0.401300	0.357300	0.454200
O261	O26	0.497300	0.437300	0.576100
O271	O27	0.034700	0.384700	0.442500
C291	C29	0.174100	0.276300	0.409500
H111	H11	0.140200	0.204100	0.391900
O281	O28	0.092000	0.599400	0.464600
C301	C30	0.278900	0.400900	0.442500
C311	C31	0.357700	0.447400	0.465200
C321	C32	0.158600	0.405800	0.436100
C331	C33	0.498300	0.451400	0.694700
C341	C34	0.090200	0.469800	0.448500
C351	C35	0.491700	0.517200	0.626200
C361	C36	0.499100	0.310800	0.713700
H121	H12	0.498600	0.230500	0.685100
Dy51	Dy5	0.979230	0.781550	0.004850
O291	O29	0.723000	0.016200	0.957600
C371	C37	0.751300	0.227500	0.913800
H131	H13	0.778200	0.302800	0.899800
O301	O30	0.869200	0.926900	0.991300
O311	O31	0.979500	0.850600	0.120500
O321	O32	0.901300	0.142700	0.954200
O331	O33	0.997300	0.062700	0.076100
O341	O34	0.534700	0.115300	0.942500
C381	C38	0.674100	0.223700	0.909500
H141	H14	0.640200	0.295900	0.891900
O351	O35	0.592000	0.900600	0.964600
C391	C39	0.778900	0.099100	0.942500
C401	C40	0.857700	0.052600	0.965200
C411	C41	0.658600	0.094200	0.936100
C421	C42	0.998300	0.048600	0.194700
C431	C43	0.590200	0.030200	0.948500
C441	C44	0.991700	0.982800	0.126200
C451	C45	0.999100	0.189200	0.213700
H151	H15	0.998600	0.269500	0.185100
Dy61	Dy6	0.479230	0.281550	0.004850
O361	O36	0.223000	0.516200	0.957600
C461	C46	0.251300	0.727500	0.913800
H161	H16	0.278200	0.802800	0.899800
O371	O37	0.369200	0.426900	0.991300
O381	O38	0.479500	0.350600	0.120500
O391	O39	0.401300	0.642700	0.954200
O401	O40	0.497300	0.562700	0.076100
O411	O41	0.034700	0.615300	0.942500
C471	C47	0.174100	0.723700	0.909500
H171	H17	0.140200	0.795900	0.891900
O421	O42	0.092000	0.400600	0.964600
C481	C48	0.278900	0.599100	0.942500
C491	C49	0.357700	0.552600	0.965200
C501	C50	0.158600	0.594200	0.936100
C511	C51	0.498300	0.548600	0.194700
C521	C52	0.090200	0.530200	0.948500
C531	C53	0.491700	0.482800	0.126200
C541	C54	0.499100	0.689200	0.213700
H181	H18	0.498600	0.769500	0.185100
Dy71	Dy7	0.020770	0.781550	0.495150
O431	O43	0.277000	0.016200	0.542400
C551	C55	0.248700	0.227500	0.586200
H191	H19	0.221800	0.302800	0.600200
O441	O44	0.130800	0.926900	0.508700
O451	O45	0.020500	0.850600	0.379500
O461	O46	0.098700	0.142700	0.545800
O471	O47	0.002700	0.062700	0.423900
O481	O48	0.465300	0.115300	0.557500
C561	C56	0.325900	0.223700	0.590500
H201	H20	0.359800	0.295900	0.608100
O491	O49	0.408000	0.900600	0.535400
C571	C57	0.221100	0.099100	0.557500
C581	C58	0.142300	0.052600	0.534800
C591	C59	0.341400	0.094200	0.563900
C601	C60	0.001700	0.048600	0.305300
C611	C61	0.409800	0.030200	0.551500
C621	C62	0.008300	0.982800	0.373800
C631	C63	0.000900	0.189200	0.286300
H211	H21	0.001400	0.269500	0.314900
Dy81	Dy8	0.520770	0.281550	0.495150
O501	O50	0.777000	0.516200	0.542400
C641	C64	0.748700	0.727500	0.586200
H221	H22	0.721800	0.802800	0.600200
O511	O51	0.630800	0.426900	0.508700
O521	O52	0.520500	0.350600	0.379500
O531	O53	0.598700	0.642700	0.545800
O541	O54	0.502700	0.562700	0.423900
O551	O55	0.965300	0.615300	0.557500
C651	C65	0.825900	0.723700	0.590500
H231	H23	0.859800	0.795900	0.608100
O561	O56	0.908000	0.400600	0.535400
C661	C66	0.721100	0.599100	0.557500
C671	C67	0.642300	0.552600	0.534800
C681	C68	0.841400	0.594200	0.563900
C691	C69	0.501700	0.548600	0.305300
C701	C70	0.909800	0.530200	0.551500
C711	C71	0.508300	0.482800	0.373800
C721	C72	0.500900	0.689200	0.286300
H241	H24	0.501400	0.769500	0.314900
O571	O57	0.000000	0.038000	0.750000
O581	O58	0.500000	0.538000	0.750000
O591	O59	0.000000	0.962000	0.250000
O601	O60	0.500000	0.462000	0.250000
