data_YUSWEP_manual_PM
_symmetry_space_group_name_H-M	'P1'
_cell_length_a	58.268800
_cell_length_b	58.268800
_cell_length_c	58.268800
_cell_angle_alpha	109.471000
_cell_angle_beta	109.471000
_cell_angle_gamma	109.471000
_symmetry_Int_Tables_number 1

loop_
_symmetry_equiv_pos_as_xyz
'x,y,z'

loop_
_atom_site_label
_atom_site_type_symbol
_atom_site_fract_x
_atom_site_fract_y
_atom_site_fract_z
O11	O1	0.627170	0.409530	0.824100
O21	O2	0.602270	0.408980	0.846670
O31	O3	0.794750	0.351940	0.970890
O41	O4	0.774690	0.312310	0.971000
O51	O5	0.628280	0.495110	0.656850
O61	O6	0.668750	0.514870	0.697280
O71	O7	0.616060	0.467420	0.811620
O81	O8	0.591870	0.466500	0.834490
C11	C1	0.617140	0.402210	0.838570
C21	C2	0.622130	0.379650	0.843500
C31	C3	0.644330	0.375560	0.842930
H11	H1	0.656700	0.386900	0.839000
C41	C4	0.648530	0.355690	0.847980
H21	H2	0.663800	0.353400	0.847400
C51	C5	0.630790	0.338530	0.853960
C61	C6	0.608950	0.342200	0.853370
H31	H3	0.595800	0.330000	0.856000
C71	C7	0.604720	0.362520	0.849260
H41	H4	0.589700	0.364900	0.850400
C81	C8	0.635490	0.315890	0.858740
C91	C9	0.661980	0.321830	0.876750
H51	H5	0.677500	0.340300	0.886400
C101	C10	0.666110	0.300810	0.880820
C111	C11	0.643690	0.275620	0.866230
H61	H6	0.646600	0.261300	0.868700
C121	C12	0.615640	0.267230	0.847230
C131	C13	0.612350	0.287810	0.844220
H71	H7	0.594100	0.283800	0.832100
C141	C14	0.693890	0.308340	0.900770
C151	C15	0.718190	0.330680	0.908530
H81	H8	0.717300	0.342300	0.900400
C161	C16	0.743850	0.336810	0.927700
H91	H9	0.760500	0.352200	0.932300
C171	C17	0.745610	0.320400	0.940570
C181	C18	0.721890	0.299140	0.933310
H101	H10	0.722400	0.287800	0.941800
C191	C19	0.696750	0.293160	0.914010
H111	H11	0.680200	0.277600	0.909400
C201	C20	0.773430	0.328960	0.962310
C211	C21	0.646250	0.513290	0.682060
C221	C22	0.639640	0.534240	0.696880
C231	C23	0.613590	0.532200	0.683250
H121	H12	0.600300	0.517300	0.664600
C241	C24	0.606720	0.551440	0.696340
H131	H13	0.588900	0.549600	0.686700
C251	C25	0.626000	0.573410	0.723570
C261	C26	0.651560	0.575120	0.737540
H141	H14	0.664700	0.589600	0.756500
C271	C27	0.658000	0.555430	0.723710
H151	H15	0.675600	0.557000	0.733400
C281	C28	0.619820	0.594570	0.739970
C291	C29	0.631130	0.606540	0.769130
H161	H16	0.643900	0.602000	0.779100
H171	H17	0.636300	0.653100	0.823400
C301	C30	0.615920	0.591080	0.818040
H181	H18	0.631000	0.588900	0.816900
C311	C31	0.596380	0.570990	0.819310
C321	C32	0.598980	0.547900	0.819960
C331	C33	0.589720	0.536700	0.834420
H191	H19	0.582400	0.545200	0.844800
C341	C34	0.590710	0.513340	0.834370
H201	H20	0.583400	0.505700	0.844100
C351	C35	0.602260	0.500680	0.820220
C361	C36	0.612250	0.511870	0.806520
H211	H21	0.620500	0.504200	0.796900
C371	C37	0.610310	0.535200	0.806970
H221	H22	0.617600	0.542900	0.797300
C381	C38	0.602960	0.475600	0.821720
O91	O9	0.585430	0.803070	0.175900
O101	O10	0.562310	0.755600	0.153330
O111	O11	0.381050	0.823860	0.029110
O121	O12	0.341310	0.803690	0.029000
O131	O13	0.838260	0.971430	0.343150
O141	O14	0.817590	0.971470	0.302720
O151	O15	0.655800	0.804440	0.188380
O161	O16	0.632010	0.757380	0.165510
C391	C39	0.563640	0.778570	0.161430
C401	C40	0.536150	0.778630	0.156500
C411	C41	0.532630	0.801400	0.157070
H231	H23	0.547900	0.817700	0.161000
C421	C42	0.507710	0.800550	0.152020
H241	H24	0.506000	0.816400	0.152600
C431	C43	0.484570	0.776830	0.146040
C441	C44	0.488830	0.755580	0.146630
H251	H25	0.474000	0.739800	0.144000
C451	C45	0.513260	0.755460	0.150740
H261	H26	0.514500	0.739300	0.149600
C461	C46	0.457150	0.776750	0.141260
C471	C47	0.445080	0.785230	0.123250
H271	H27	0.453900	0.791100	0.113600
C481	C48	0.419990	0.785290	0.119180
C491	C49	0.409390	0.777460	0.133770
H281	H28	0.392600	0.777900	0.131300
C501	C50	0.420000	0.768410	0.152770
C511	C51	0.443590	0.768130	0.155780
H291	H29	0.451700	0.762000	0.167900
C521	C52	0.407570	0.793120	0.099230
C531	C53	0.422150	0.809660	0.091470
H301	H30	0.441900	0.816900	0.099600
C541	C54	0.409110	0.816150	0.072300
H311	H31	0.419900	0.828200	0.067700
C551	C55	0.379830	0.805040	0.059430
C561	C56	0.365830	0.788580	0.066690
H321	H32	0.346000	0.780600	0.058200
C571	C57	0.379150	0.782740	0.085990
H331	H33	0.368200	0.770800	0.090600
C581	C58	0.366650	0.811120	0.037690
C591	C59	0.831230	0.964190	0.317940
C601	C60	0.837360	0.942760	0.303120
C611	C61	0.848950	0.930340	0.316750
H341	H34	0.852700	0.935700	0.335400
C621	C62	0.855100	0.910380	0.303660
H351	H35	0.862900	0.902200	0.313300
C631	C63	0.849840	0.902430	0.276430
C641	C64	0.837580	0.914020	0.262460
H361	H36	0.833100	0.908200	0.243500
C651	C65	0.831720	0.934290	0.276290
H371	H37	0.823600	0.942200	0.266600
C661	C66	0.854600	0.879850	0.260030
C671	C67	0.837410	0.862000	0.230870
H381	H38	0.822900	0.864800	0.220900
H391	H39	0.829700	0.812900	0.176600
C681	C68	0.773040	0.797880	0.181960
H401	H40	0.772000	0.814100	0.183100
C691	C69	0.751680	0.777070	0.180690
C701	C70	0.727940	0.779020	0.180040
C711	C71	0.702280	0.755300	0.165580
H411	H41	0.700400	0.737600	0.155200
C721	C72	0.678970	0.756340	0.165630
H421	H42	0.661600	0.739300	0.155900
C731	C73	0.680460	0.782040	0.179780
C741	C74	0.705350	0.805730	0.193480
H431	H43	0.707300	0.823600	0.203100
C751	C75	0.728230	0.803340	0.193030
H441	H44	0.745600	0.820300	0.202700
C761	C76	0.653880	0.781240	0.178280
O171	O17	0.414570	0.590470	0.217640
O181	O18	0.437690	0.591020	0.193290
O191	O19	0.618950	0.648060	0.442810
O201	O20	0.658690	0.687690	0.462380
O211	O21	0.161740	0.504890	0.133170
O221	O22	0.182410	0.485130	0.153880
O231	O23	0.344200	0.532580	0.148640
O241	O24	0.367990	0.533500	0.125370
C771	C77	0.436360	0.597790	0.214930
C781	C78	0.463850	0.620350	0.242480
C791	C79	0.467370	0.624440	0.268770
H451	H45	0.452100	0.613100	0.269800
C801	C80	0.492290	0.644310	0.292840
H461	H46	0.494000	0.646600	0.310400
C811	C81	0.515430	0.661470	0.292260
C821	C82	0.511170	0.657800	0.266750
H471	H47	0.526000	0.670000	0.265800
C831	C83	0.486740	0.637480	0.242200
H481	H48	0.485500	0.635100	0.224800
C841	C84	0.542850	0.684110	0.319600
C851	C85	0.554920	0.678170	0.340150
H491	H49	0.546100	0.659700	0.337200
C861	C86	0.580010	0.699190	0.365300
C871	C87	0.590610	0.724380	0.368070
H501	H50	0.607400	0.738700	0.385300
C881	C88	0.580000	0.732770	0.348410
C891	C89	0.556410	0.712190	0.324540
H511	H51	0.548300	0.716200	0.310300
C901	C90	0.592430	0.691660	0.385550
C911	C91	0.577850	0.669320	0.387510
H521	H52	0.558100	0.657700	0.375000
C921	C92	0.590890	0.663190	0.407040
H531	H53	0.580100	0.647800	0.408300
C931	C93	0.620170	0.679600	0.425210
C941	C94	0.634170	0.700860	0.422750
H541	H54	0.654000	0.712200	0.434600
C951	C95	0.620850	0.706840	0.403590
H551	H55	0.631800	0.722400	0.402600
C961	C96	0.633350	0.671040	0.444470
C971	C97	0.168770	0.486710	0.132960
C981	C98	0.162640	0.465760	0.105400
C991	C99	0.151050	0.467800	0.081390
H561	H56	0.147300	0.482700	0.083000
C1001	C100	0.144900	0.448560	0.055280
H571	H57	0.137100	0.450400	0.039300
C1011	C101	0.150160	0.426590	0.052590
C1021	C102	0.162420	0.424880	0.076440
H581	H58	0.166900	0.410400	0.075100
C1031	C103	0.168280	0.444570	0.102570
H591	H59	0.176400	0.443000	0.118600
C1041	C104	0.145400	0.405430	0.025250
C1051	C105	0.162590	0.393460	0.024590
H601	H60	0.177100	0.398000	0.041900
H611	H61	0.170300	0.346900	0.983200
C1061	C106	0.226960	0.408920	0.024840
H621	H62	0.228000	0.411100	0.042100
C1071	C107	0.248320	0.429010	0.025390
C1081	C108	0.272060	0.452100	0.051080
C1091	C109	0.297720	0.463300	0.053020
H631	H63	0.299600	0.454800	0.037200
C1101	C110	0.321030	0.486660	0.077370
H641	H64	0.338400	0.494300	0.077700
C1111	C111	0.319540	0.499320	0.101580
C1121	C112	0.294650	0.488130	0.100380
H651	H65	0.292700	0.495800	0.116300
C1131	C113	0.271770	0.464800	0.075110
H661	H66	0.254400	0.457100	0.074700
C1141	C114	0.346120	0.524400	0.127360
O251	O25	0.372830	0.196930	0.782360
O261	O26	0.397730	0.244400	0.806710
O271	O27	0.205250	0.176140	0.557190
O281	O28	0.225310	0.196310	0.537620
O291	O29	0.371720	0.028570	0.866830
O301	O30	0.331250	0.028530	0.846120
O311	O31	0.383940	0.195560	0.851360
O321	O32	0.408130	0.242620	0.874630
C1151	C115	0.382860	0.221430	0.785070
C1161	C116	0.377870	0.221370	0.757520
C1171	C117	0.355670	0.198600	0.731230
H671	H67	0.343300	0.182300	0.730200
C1181	C118	0.351470	0.199450	0.707160
H681	H68	0.336200	0.183600	0.689600
C1191	C119	0.369210	0.223170	0.707740
C1201	C120	0.391050	0.244420	0.733250
H691	H69	0.404200	0.260200	0.734200
C1211	C121	0.395280	0.244540	0.757800
H701	H70	0.410300	0.260700	0.775200
C1221	C122	0.364510	0.223250	0.680400
C1231	C123	0.338020	0.214770	0.659850
H711	H71	0.322500	0.208900	0.662800
C1241	C124	0.333890	0.214710	0.634700
C1251	C125	0.356310	0.222540	0.631930
H721	H72	0.353400	0.222100	0.614700
C1261	C126	0.384360	0.231590	0.651590
C1271	C127	0.387650	0.231870	0.675460
H731	H73	0.405900	0.238000	0.689700
C1281	C128	0.306110	0.206880	0.614450
C1291	C129	0.281810	0.190340	0.612490
H741	H74	0.282700	0.183100	0.625000
C1301	C130	0.256150	0.183850	0.592960
H751	H75	0.239500	0.171800	0.591700
C1311	C131	0.254390	0.194960	0.574790
C1321	C132	0.278110	0.211420	0.577250
H761	H76	0.277600	0.219400	0.565400
C1331	C133	0.303250	0.217260	0.596410
H771	H77	0.319800	0.229200	0.597400
C1341	C134	0.226570	0.188880	0.555530
C1351	C135	0.353750	0.035810	0.867040
C1361	C136	0.360360	0.057240	0.894600
C1371	C137	0.386410	0.069660	0.918610
H781	H78	0.399700	0.064300	0.917000
C1381	C138	0.393280	0.089620	0.944720
H791	H79	0.411100	0.097800	0.960700
C1391	C139	0.374000	0.097570	0.947410
C1401	C140	0.348440	0.085980	0.923560
H801	H80	0.335300	0.091800	0.924900
C1411	C141	0.342000	0.065710	0.897430
H811	H81	0.324400	0.057800	0.881400
C1421	C142	0.380180	0.120150	0.974750
C1431	C143	0.368870	0.138000	0.975410
H821	H82	0.356100	0.135200	0.958100
H831	H83	0.363700	0.187100	0.016800
C1441	C144	0.384080	0.202120	0.975160
H841	H84	0.369000	0.185900	0.957900
C1451	C145	0.403620	0.222930	0.974610
C1461	C146	0.401020	0.220980	0.948920
C1471	C147	0.410280	0.244700	0.946980
H851	H85	0.417600	0.262400	0.962800
C1481	C148	0.409290	0.243660	0.922630
H861	H86	0.416600	0.260700	0.922300
C1491	C149	0.397740	0.217960	0.898420
C1501	C150	0.387750	0.194270	0.899620
H871	H87	0.379500	0.176400	0.883700
C1511	C151	0.389690	0.196660	0.924890
H881	H88	0.382400	0.179700	0.925300
C1521	C152	0.397040	0.218760	0.872640
O331	O33	0.824100	0.627170	0.409530
O341	O34	0.846670	0.602270	0.408980
O351	O35	0.970890	0.794750	0.351940
O361	O36	0.971000	0.774690	0.312310
O371	O37	0.656850	0.628280	0.495110
O381	O38	0.697280	0.668750	0.514870
O391	O39	0.811620	0.616060	0.467420
O401	O40	0.834490	0.591870	0.466500
C1531	C153	0.838570	0.617140	0.402210
C1541	C154	0.843500	0.622130	0.379650
C1551	C155	0.842930	0.644330	0.375560
H891	H89	0.839000	0.656700	0.386900
C1561	C156	0.847980	0.648530	0.355690
H901	H90	0.847400	0.663800	0.353400
C1571	C157	0.853960	0.630790	0.338530
C1581	C158	0.853370	0.608950	0.342200
H911	H91	0.856000	0.595800	0.330000
C1591	C159	0.849260	0.604720	0.362520
H921	H92	0.850400	0.589700	0.364900
C1601	C160	0.858740	0.635490	0.315890
C1611	C161	0.876750	0.661980	0.321830
H931	H93	0.886400	0.677500	0.340300
C1621	C162	0.880820	0.666110	0.300810
C1631	C163	0.866230	0.643690	0.275620
H941	H94	0.868700	0.646600	0.261300
C1641	C164	0.847230	0.615640	0.267230
C1651	C165	0.844220	0.612350	0.287810
H951	H95	0.832100	0.594100	0.283800
C1661	C166	0.900770	0.693890	0.308340
C1671	C167	0.908530	0.718190	0.330680
H961	H96	0.900400	0.717300	0.342300
C1681	C168	0.927700	0.743850	0.336810
H971	H97	0.932300	0.760500	0.352200
C1691	C169	0.940570	0.745610	0.320400
C1701	C170	0.933310	0.721890	0.299140
H981	H98	0.941800	0.722400	0.287800
C1711	C171	0.914010	0.696750	0.293160
H991	H99	0.909400	0.680200	0.277600
C1721	C172	0.962310	0.773430	0.328960
C1731	C173	0.682060	0.646250	0.513290
C1741	C174	0.696880	0.639640	0.534240
C1751	C175	0.683250	0.613590	0.532200
H1001	H100	0.664600	0.600300	0.517300
C1761	C176	0.696340	0.606720	0.551440
H1011	H101	0.686700	0.588900	0.549600
C1771	C177	0.723570	0.626000	0.573410
C1781	C178	0.737540	0.651560	0.575120
H1021	H102	0.756500	0.664700	0.589600
C1791	C179	0.723710	0.658000	0.555430
H1031	H103	0.733400	0.675600	0.557000
C1801	C180	0.739970	0.619820	0.594570
C1811	C181	0.769130	0.631130	0.606540
H1041	H104	0.779100	0.643900	0.602000
H1051	H105	0.823400	0.636300	0.653100
C1821	C182	0.818040	0.615920	0.591080
H1061	H106	0.816900	0.631000	0.588900
C1831	C183	0.819310	0.596380	0.570990
C1841	C184	0.819960	0.598980	0.547900
C1851	C185	0.834420	0.589720	0.536700
H1071	H107	0.844800	0.582400	0.545200
C1861	C186	0.834370	0.590710	0.513340
H1081	H108	0.844100	0.583400	0.505700
C1871	C187	0.820220	0.602260	0.500680
C1881	C188	0.806520	0.612250	0.511870
H1091	H109	0.796900	0.620500	0.504200
C1891	C189	0.806970	0.610310	0.535200
H1101	H110	0.797300	0.617600	0.542900
C1901	C190	0.821720	0.602960	0.475600
O411	O41	0.175900	0.585430	0.803070
O421	O42	0.153330	0.562310	0.755600
O431	O43	0.029110	0.381050	0.823860
O441	O44	0.029000	0.341310	0.803690
O451	O45	0.343150	0.838260	0.971430
O461	O46	0.302720	0.817590	0.971470
O471	O47	0.188380	0.655800	0.804440
O481	O48	0.165510	0.632010	0.757380
C1911	C191	0.161430	0.563640	0.778570
C1921	C192	0.156500	0.536150	0.778630
C1931	C193	0.157070	0.532630	0.801400
H1111	H111	0.161000	0.547900	0.817700
C1941	C194	0.152020	0.507710	0.800550
H1121	H112	0.152600	0.506000	0.816400
C1951	C195	0.146040	0.484570	0.776830
C1961	C196	0.146630	0.488830	0.755580
H1131	H113	0.144000	0.474000	0.739800
C1971	C197	0.150740	0.513260	0.755460
H1141	H114	0.149600	0.514500	0.739300
C1981	C198	0.141260	0.457150	0.776750
C1991	C199	0.123250	0.445080	0.785230
H1151	H115	0.113600	0.453900	0.791100
C2001	C200	0.119180	0.419990	0.785290
C2011	C201	0.133770	0.409390	0.777460
H1161	H116	0.131300	0.392600	0.777900
C2021	C202	0.152770	0.420000	0.768410
C2031	C203	0.155780	0.443590	0.768130
H1171	H117	0.167900	0.451700	0.762000
C2041	C204	0.099230	0.407570	0.793120
C2051	C205	0.091470	0.422150	0.809660
H1181	H118	0.099600	0.441900	0.816900
C2061	C206	0.072300	0.409110	0.816150
H1191	H119	0.067700	0.419900	0.828200
C2071	C207	0.059430	0.379830	0.805040
C2081	C208	0.066690	0.365830	0.788580
H1201	H120	0.058200	0.346000	0.780600
C2091	C209	0.085990	0.379150	0.782740
H1211	H121	0.090600	0.368200	0.770800
C2101	C210	0.037690	0.366650	0.811120
C2111	C211	0.317940	0.831230	0.964190
C2121	C212	0.303120	0.837360	0.942760
C2131	C213	0.316750	0.848950	0.930340
H1221	H122	0.335400	0.852700	0.935700
C2141	C214	0.303660	0.855100	0.910380
H1231	H123	0.313300	0.862900	0.902200
C2151	C215	0.276430	0.849840	0.902430
C2161	C216	0.262460	0.837580	0.914020
H1241	H124	0.243500	0.833100	0.908200
C2171	C217	0.276290	0.831720	0.934290
H1251	H125	0.266600	0.823600	0.942200
C2181	C218	0.260030	0.854600	0.879850
C2191	C219	0.230870	0.837410	0.862000
H1261	H126	0.220900	0.822900	0.864800
H1271	H127	0.176600	0.829700	0.812900
C2201	C220	0.181960	0.773040	0.797880
H1281	H128	0.183100	0.772000	0.814100
C2211	C221	0.180690	0.751680	0.777070
C2221	C222	0.180040	0.727940	0.779020
C2231	C223	0.165580	0.702280	0.755300
H1291	H129	0.155200	0.700400	0.737600
C2241	C224	0.165630	0.678970	0.756340
H1301	H130	0.155900	0.661600	0.739300
C2251	C225	0.179780	0.680460	0.782040
C2261	C226	0.193480	0.705350	0.805730
H1311	H131	0.203100	0.707300	0.823600
C2271	C227	0.193030	0.728230	0.803340
H1321	H132	0.202700	0.745600	0.820300
C2281	C228	0.178280	0.653880	0.781240
O491	O49	0.217640	0.414570	0.590470
O501	O50	0.193290	0.437690	0.591020
O511	O51	0.442810	0.618950	0.648060
O521	O52	0.462380	0.658690	0.687690
O531	O53	0.133170	0.161740	0.504890
O541	O54	0.153880	0.182410	0.485130
O551	O55	0.148640	0.344200	0.532580
O561	O56	0.125370	0.367990	0.533500
C2291	C229	0.214930	0.436360	0.597790
C2301	C230	0.242480	0.463850	0.620350
C2311	C231	0.268770	0.467370	0.624440
H1331	H133	0.269800	0.452100	0.613100
C2321	C232	0.292840	0.492290	0.644310
H1341	H134	0.310400	0.494000	0.646600
C2331	C233	0.292260	0.515430	0.661470
C2341	C234	0.266750	0.511170	0.657800
H1351	H135	0.265800	0.526000	0.670000
C2351	C235	0.242200	0.486740	0.637480
H1361	H136	0.224800	0.485500	0.635100
C2361	C236	0.319600	0.542850	0.684110
C2371	C237	0.340150	0.554920	0.678170
H1371	H137	0.337200	0.546100	0.659700
C2381	C238	0.365300	0.580010	0.699190
C2391	C239	0.368070	0.590610	0.724380
H1381	H138	0.385300	0.607400	0.738700
C2401	C240	0.348410	0.580000	0.732770
C2411	C241	0.324540	0.556410	0.712190
H1391	H139	0.310300	0.548300	0.716200
C2421	C242	0.385550	0.592430	0.691660
C2431	C243	0.387510	0.577850	0.669320
H1401	H140	0.375000	0.558100	0.657700
C2441	C244	0.407040	0.590890	0.663190
H1411	H141	0.408300	0.580100	0.647800
C2451	C245	0.425210	0.620170	0.679600
C2461	C246	0.422750	0.634170	0.700860
H1421	H142	0.434600	0.654000	0.712200
C2471	C247	0.403590	0.620850	0.706840
H1431	H143	0.402600	0.631800	0.722400
C2481	C248	0.444470	0.633350	0.671040
C2491	C249	0.132960	0.168770	0.486710
C2501	C250	0.105400	0.162640	0.465760
C2511	C251	0.081390	0.151050	0.467800
H1441	H144	0.083000	0.147300	0.482700
C2521	C252	0.055280	0.144900	0.448560
H1451	H145	0.039300	0.137100	0.450400
C2531	C253	0.052590	0.150160	0.426590
C2541	C254	0.076440	0.162420	0.424880
H1461	H146	0.075100	0.166900	0.410400
C2551	C255	0.102570	0.168280	0.444570
H1471	H147	0.118600	0.176400	0.443000
C2561	C256	0.025250	0.145400	0.405430
C2571	C257	0.024590	0.162590	0.393460
H1481	H148	0.041900	0.177100	0.398000
H1491	H149	0.983200	0.170300	0.346900
C2581	C258	0.024840	0.226960	0.408920
H1501	H150	0.042100	0.228000	0.411100
C2591	C259	0.025390	0.248320	0.429010
C2601	C260	0.051080	0.272060	0.452100
C2611	C261	0.053020	0.297720	0.463300
H1511	H151	0.037200	0.299600	0.454800
C2621	C262	0.077370	0.321030	0.486660
H1521	H152	0.077700	0.338400	0.494300
C2631	C263	0.101580	0.319540	0.499320
C2641	C264	0.100380	0.294650	0.488130
H1531	H153	0.116300	0.292700	0.495800
C2651	C265	0.075110	0.271770	0.464800
H1541	H154	0.074700	0.254400	0.457100
C2661	C266	0.127360	0.346120	0.524400
O571	O57	0.782360	0.372830	0.196930
O581	O58	0.806710	0.397730	0.244400
O591	O59	0.557190	0.205250	0.176140
O601	O60	0.537620	0.225310	0.196310
O611	O61	0.866830	0.371720	0.028570
O621	O62	0.846120	0.331250	0.028530
O631	O63	0.851360	0.383940	0.195560
O641	O64	0.874630	0.408130	0.242620
C2671	C267	0.785070	0.382860	0.221430
C2681	C268	0.757520	0.377870	0.221370
C2691	C269	0.731230	0.355670	0.198600
H1551	H155	0.730200	0.343300	0.182300
C2701	C270	0.707160	0.351470	0.199450
H1561	H156	0.689600	0.336200	0.183600
C2711	C271	0.707740	0.369210	0.223170
C2721	C272	0.733250	0.391050	0.244420
H1571	H157	0.734200	0.404200	0.260200
C2731	C273	0.757800	0.395280	0.244540
H1581	H158	0.775200	0.410300	0.260700
C2741	C274	0.680400	0.364510	0.223250
C2751	C275	0.659850	0.338020	0.214770
H1591	H159	0.662800	0.322500	0.208900
C2761	C276	0.634700	0.333890	0.214710
C2771	C277	0.631930	0.356310	0.222540
H1601	H160	0.614700	0.353400	0.222100
C2781	C278	0.651590	0.384360	0.231590
C2791	C279	0.675460	0.387650	0.231870
H1611	H161	0.689700	0.405900	0.238000
C2801	C280	0.614450	0.306110	0.206880
C2811	C281	0.612490	0.281810	0.190340
H1621	H162	0.625000	0.282700	0.183100
C2821	C282	0.592960	0.256150	0.183850
H1631	H163	0.591700	0.239500	0.171800
C2831	C283	0.574790	0.254390	0.194960
C2841	C284	0.577250	0.278110	0.211420
H1641	H164	0.565400	0.277600	0.219400
C2851	C285	0.596410	0.303250	0.217260
H1651	H165	0.597400	0.319800	0.229200
C2861	C286	0.555530	0.226570	0.188880
C2871	C287	0.867040	0.353750	0.035810
C2881	C288	0.894600	0.360360	0.057240
C2891	C289	0.918610	0.386410	0.069660
H1661	H166	0.917000	0.399700	0.064300
C2901	C290	0.944720	0.393280	0.089620
H1671	H167	0.960700	0.411100	0.097800
C2911	C291	0.947410	0.374000	0.097570
C2921	C292	0.923560	0.348440	0.085980
H1681	H168	0.924900	0.335300	0.091800
C2931	C293	0.897430	0.342000	0.065710
H1691	H169	0.881400	0.324400	0.057800
C2941	C294	0.974750	0.380180	0.120150
C2951	C295	0.975410	0.368870	0.138000
H1701	H170	0.958100	0.356100	0.135200
H1711	H171	0.016800	0.363700	0.187100
C2961	C296	0.975160	0.384080	0.202120
H1721	H172	0.957900	0.369000	0.185900
C2971	C297	0.974610	0.403620	0.222930
C2981	C298	0.948920	0.401020	0.220980
C2991	C299	0.946980	0.410280	0.244700
H1731	H173	0.962800	0.417600	0.262400
C3001	C300	0.922630	0.409290	0.243660
H1741	H174	0.922300	0.416600	0.260700
C3011	C301	0.898420	0.397740	0.217960
C3021	C302	0.899620	0.387750	0.194270
H1751	H175	0.883700	0.379500	0.176400
C3031	C303	0.924890	0.389690	0.196660
H1761	H176	0.925300	0.382400	0.179700
C3041	C304	0.872640	0.397040	0.218760
O651	O65	0.409530	0.824100	0.627170
O661	O66	0.408980	0.846670	0.602270
O671	O67	0.351940	0.970890	0.794750
O681	O68	0.312310	0.971000	0.774690
O691	O69	0.495110	0.656850	0.628280
O701	O70	0.514870	0.697280	0.668750
O711	O71	0.467420	0.811620	0.616060
O721	O72	0.466500	0.834490	0.591870
C3051	C305	0.402210	0.838570	0.617140
C3061	C306	0.379650	0.843500	0.622130
C3071	C307	0.375560	0.842930	0.644330
H1771	H177	0.386900	0.839000	0.656700
C3081	C308	0.355690	0.847980	0.648530
H1781	H178	0.353400	0.847400	0.663800
C3091	C309	0.338530	0.853960	0.630790
C3101	C310	0.342200	0.853370	0.608950
H1791	H179	0.330000	0.856000	0.595800
C3111	C311	0.362520	0.849260	0.604720
H1801	H180	0.364900	0.850400	0.589700
C3121	C312	0.315890	0.858740	0.635490
C3131	C313	0.321830	0.876750	0.661980
H1811	H181	0.340300	0.886400	0.677500
C3141	C314	0.300810	0.880820	0.666110
C3151	C315	0.275620	0.866230	0.643690
H1821	H182	0.261300	0.868700	0.646600
C3161	C316	0.267230	0.847230	0.615640
C3171	C317	0.287810	0.844220	0.612350
H1831	H183	0.283800	0.832100	0.594100
C3181	C318	0.308340	0.900770	0.693890
C3191	C319	0.330680	0.908530	0.718190
H1841	H184	0.342300	0.900400	0.717300
C3201	C320	0.336810	0.927700	0.743850
H1851	H185	0.352200	0.932300	0.760500
C3211	C321	0.320400	0.940570	0.745610
C3221	C322	0.299140	0.933310	0.721890
H1861	H186	0.287800	0.941800	0.722400
C3231	C323	0.293160	0.914010	0.696750
H1871	H187	0.277600	0.909400	0.680200
C3241	C324	0.328960	0.962310	0.773430
C3251	C325	0.513290	0.682060	0.646250
C3261	C326	0.534240	0.696880	0.639640
C3271	C327	0.532200	0.683250	0.613590
H1881	H188	0.517300	0.664600	0.600300
C3281	C328	0.551440	0.696340	0.606720
H1891	H189	0.549600	0.686700	0.588900
C3291	C329	0.573410	0.723570	0.626000
C3301	C330	0.575120	0.737540	0.651560
H1901	H190	0.589600	0.756500	0.664700
C3311	C331	0.555430	0.723710	0.658000
H1911	H191	0.557000	0.733400	0.675600
C3321	C332	0.594570	0.739970	0.619820
C3331	C333	0.606540	0.769130	0.631130
H1921	H192	0.602000	0.779100	0.643900
H1931	H193	0.653100	0.823400	0.636300
C3341	C334	0.591080	0.818040	0.615920
H1941	H194	0.588900	0.816900	0.631000
C3351	C335	0.570990	0.819310	0.596380
C3361	C336	0.547900	0.819960	0.598980
C3371	C337	0.536700	0.834420	0.589720
H1951	H195	0.545200	0.844800	0.582400
C3381	C338	0.513340	0.834370	0.590710
H1961	H196	0.505700	0.844100	0.583400
C3391	C339	0.500680	0.820220	0.602260
C3401	C340	0.511870	0.806520	0.612250
H1971	H197	0.504200	0.796900	0.620500
C3411	C341	0.535200	0.806970	0.610310
H1981	H198	0.542900	0.797300	0.617600
C3421	C342	0.475600	0.821720	0.602960
O731	O73	0.803070	0.175900	0.585430
O741	O74	0.755600	0.153330	0.562310
O751	O75	0.823860	0.029110	0.381050
O761	O76	0.803690	0.029000	0.341310
O771	O77	0.971430	0.343150	0.838260
O781	O78	0.971470	0.302720	0.817590
O791	O79	0.804440	0.188380	0.655800
O801	O80	0.757380	0.165510	0.632010
C3431	C343	0.778570	0.161430	0.563640
C3441	C344	0.778630	0.156500	0.536150
C3451	C345	0.801400	0.157070	0.532630
H1991	H199	0.817700	0.161000	0.547900
C3461	C346	0.800550	0.152020	0.507710
H2001	H200	0.816400	0.152600	0.506000
C3471	C347	0.776830	0.146040	0.484570
C3481	C348	0.755580	0.146630	0.488830
H2011	H201	0.739800	0.144000	0.474000
C3491	C349	0.755460	0.150740	0.513260
H2021	H202	0.739300	0.149600	0.514500
C3501	C350	0.776750	0.141260	0.457150
C3511	C351	0.785230	0.123250	0.445080
H2031	H203	0.791100	0.113600	0.453900
C3521	C352	0.785290	0.119180	0.419990
C3531	C353	0.777460	0.133770	0.409390
H2041	H204	0.777900	0.131300	0.392600
C3541	C354	0.768410	0.152770	0.420000
C3551	C355	0.768130	0.155780	0.443590
H2051	H205	0.762000	0.167900	0.451700
C3561	C356	0.793120	0.099230	0.407570
C3571	C357	0.809660	0.091470	0.422150
H2061	H206	0.816900	0.099600	0.441900
C3581	C358	0.816150	0.072300	0.409110
H2071	H207	0.828200	0.067700	0.419900
C3591	C359	0.805040	0.059430	0.379830
C3601	C360	0.788580	0.066690	0.365830
H2081	H208	0.780600	0.058200	0.346000
C3611	C361	0.782740	0.085990	0.379150
H2091	H209	0.770800	0.090600	0.368200
C3621	C362	0.811120	0.037690	0.366650
C3631	C363	0.964190	0.317940	0.831230
C3641	C364	0.942760	0.303120	0.837360
C3651	C365	0.930340	0.316750	0.848950
H2101	H210	0.935700	0.335400	0.852700
C3661	C366	0.910380	0.303660	0.855100
H2111	H211	0.902200	0.313300	0.862900
C3671	C367	0.902430	0.276430	0.849840
C3681	C368	0.914020	0.262460	0.837580
H2121	H212	0.908200	0.243500	0.833100
C3691	C369	0.934290	0.276290	0.831720
H2131	H213	0.942200	0.266600	0.823600
C3701	C370	0.879850	0.260030	0.854600
C3711	C371	0.862000	0.230870	0.837410
H2141	H214	0.864800	0.220900	0.822900
H2151	H215	0.812900	0.176600	0.829700
C3721	C372	0.797880	0.181960	0.773040
H2161	H216	0.814100	0.183100	0.772000
C3731	C373	0.777070	0.180690	0.751680
C3741	C374	0.779020	0.180040	0.727940
C3751	C375	0.755300	0.165580	0.702280
H2171	H217	0.737600	0.155200	0.700400
C3761	C376	0.756340	0.165630	0.678970
H2181	H218	0.739300	0.155900	0.661600
C3771	C377	0.782040	0.179780	0.680460
C3781	C378	0.805730	0.193480	0.705350
H2191	H219	0.823600	0.203100	0.707300
C3791	C379	0.803340	0.193030	0.728230
H2201	H220	0.820300	0.202700	0.745600
C3801	C380	0.781240	0.178280	0.653880
O811	O81	0.590470	0.217640	0.414570
O821	O82	0.591020	0.193290	0.437690
O831	O83	0.648060	0.442810	0.618950
O841	O84	0.687690	0.462380	0.658690
O851	O85	0.504890	0.133170	0.161740
O861	O86	0.485130	0.153880	0.182410
O871	O87	0.532580	0.148640	0.344200
O881	O88	0.533500	0.125370	0.367990
C3811	C381	0.597790	0.214930	0.436360
C3821	C382	0.620350	0.242480	0.463850
C3831	C383	0.624440	0.268770	0.467370
H2211	H221	0.613100	0.269800	0.452100
C3841	C384	0.644310	0.292840	0.492290
H2221	H222	0.646600	0.310400	0.494000
C3851	C385	0.661470	0.292260	0.515430
C3861	C386	0.657800	0.266750	0.511170
H2231	H223	0.670000	0.265800	0.526000
C3871	C387	0.637480	0.242200	0.486740
H2241	H224	0.635100	0.224800	0.485500
C3881	C388	0.684110	0.319600	0.542850
C3891	C389	0.678170	0.340150	0.554920
H2251	H225	0.659700	0.337200	0.546100
C3901	C390	0.699190	0.365300	0.580010
C3911	C391	0.724380	0.368070	0.590610
H2261	H226	0.738700	0.385300	0.607400
C3921	C392	0.732770	0.348410	0.580000
C3931	C393	0.712190	0.324540	0.556410
H2271	H227	0.716200	0.310300	0.548300
C3941	C394	0.691660	0.385550	0.592430
C3951	C395	0.669320	0.387510	0.577850
H2281	H228	0.657700	0.375000	0.558100
C3961	C396	0.663190	0.407040	0.590890
H2291	H229	0.647800	0.408300	0.580100
C3971	C397	0.679600	0.425210	0.620170
C3981	C398	0.700860	0.422750	0.634170
H2301	H230	0.712200	0.434600	0.654000
C3991	C399	0.706840	0.403590	0.620850
H2311	H231	0.722400	0.402600	0.631800
C4001	C400	0.671040	0.444470	0.633350
C4011	C401	0.486710	0.132960	0.168770
C4021	C402	0.465760	0.105400	0.162640
C4031	C403	0.467800	0.081390	0.151050
H2321	H232	0.482700	0.083000	0.147300
C4041	C404	0.448560	0.055280	0.144900
H2331	H233	0.450400	0.039300	0.137100
C4051	C405	0.426590	0.052590	0.150160
C4061	C406	0.424880	0.076440	0.162420
H2341	H234	0.410400	0.075100	0.166900
C4071	C407	0.444570	0.102570	0.168280
H2351	H235	0.443000	0.118600	0.176400
C4081	C408	0.405430	0.025250	0.145400
C4091	C409	0.393460	0.024590	0.162590
H2361	H236	0.398000	0.041900	0.177100
H2371	H237	0.346900	0.983200	0.170300
C4101	C410	0.408920	0.024840	0.226960
H2381	H238	0.411100	0.042100	0.228000
C4111	C411	0.429010	0.025390	0.248320
C4121	C412	0.452100	0.051080	0.272060
C4131	C413	0.463300	0.053020	0.297720
H2391	H239	0.454800	0.037200	0.299600
C4141	C414	0.486660	0.077370	0.321030
H2401	H240	0.494300	0.077700	0.338400
C4151	C415	0.499320	0.101580	0.319540
C4161	C416	0.488130	0.100380	0.294650
H2411	H241	0.495800	0.116300	0.292700
C4171	C417	0.464800	0.075110	0.271770
H2421	H242	0.457100	0.074700	0.254400
C4181	C418	0.524400	0.127360	0.346120
O891	O89	0.196930	0.782360	0.372830
O901	O90	0.244400	0.806710	0.397730
O911	O91	0.176140	0.557190	0.205250
O921	O92	0.196310	0.537620	0.225310
O931	O93	0.028570	0.866830	0.371720
O941	O94	0.028530	0.846120	0.331250
O951	O95	0.195560	0.851360	0.383940
O961	O96	0.242620	0.874630	0.408130
C4191	C419	0.221430	0.785070	0.382860
C4201	C420	0.221370	0.757520	0.377870
C4211	C421	0.198600	0.731230	0.355670
H2431	H243	0.182300	0.730200	0.343300
C4221	C422	0.199450	0.707160	0.351470
H2441	H244	0.183600	0.689600	0.336200
C4231	C423	0.223170	0.707740	0.369210
C4241	C424	0.244420	0.733250	0.391050
H2451	H245	0.260200	0.734200	0.404200
C4251	C425	0.244540	0.757800	0.395280
H2461	H246	0.260700	0.775200	0.410300
C4261	C426	0.223250	0.680400	0.364510
C4271	C427	0.214770	0.659850	0.338020
H2471	H247	0.208900	0.662800	0.322500
C4281	C428	0.214710	0.634700	0.333890
C4291	C429	0.222540	0.631930	0.356310
H2481	H248	0.222100	0.614700	0.353400
C4301	C430	0.231590	0.651590	0.384360
C4311	C431	0.231870	0.675460	0.387650
H2491	H249	0.238000	0.689700	0.405900
C4321	C432	0.206880	0.614450	0.306110
C4331	C433	0.190340	0.612490	0.281810
H2501	H250	0.183100	0.625000	0.282700
C4341	C434	0.183850	0.592960	0.256150
H2511	H251	0.171800	0.591700	0.239500
C4351	C435	0.194960	0.574790	0.254390
C4361	C436	0.211420	0.577250	0.278110
H2521	H252	0.219400	0.565400	0.277600
C4371	C437	0.217260	0.596410	0.303250
H2531	H253	0.229200	0.597400	0.319800
C4381	C438	0.188880	0.555530	0.226570
C4391	C439	0.035810	0.867040	0.353750
C4401	C440	0.057240	0.894600	0.360360
C4411	C441	0.069660	0.918610	0.386410
H2541	H254	0.064300	0.917000	0.399700
C4421	C442	0.089620	0.944720	0.393280
H2551	H255	0.097800	0.960700	0.411100
C4431	C443	0.097570	0.947410	0.374000
C4441	C444	0.085980	0.923560	0.348440
H2561	H256	0.091800	0.924900	0.335300
C4451	C445	0.065710	0.897430	0.342000
H2571	H257	0.057800	0.881400	0.324400
C4461	C446	0.120150	0.974750	0.380180
C4471	C447	0.138000	0.975410	0.368870
H2581	H258	0.135200	0.958100	0.356100
H2591	H259	0.187100	0.016800	0.363700
C4481	C448	0.202120	0.975160	0.384080
H2601	H260	0.185900	0.957900	0.369000
C4491	C449	0.222930	0.974610	0.403620
C4501	C450	0.220980	0.948920	0.401020
C4511	C451	0.244700	0.946980	0.410280
H2611	H261	0.262400	0.962800	0.417600
C4521	C452	0.243660	0.922630	0.409290
H2621	H262	0.260700	0.922300	0.416600
C4531	C453	0.217960	0.898420	0.397740
C4541	C454	0.194270	0.899620	0.387750
H2631	H263	0.176400	0.883700	0.379500
C4551	C455	0.196660	0.924890	0.389690
H2641	H264	0.179700	0.925300	0.382400
C4561	C456	0.218760	0.872640	0.397040
O971	O97	0.196930	0.414570	0.824100
O981	O98	0.244400	0.437690	0.846670
O991	O99	0.176140	0.618950	0.970890
O1001	O100	0.196310	0.658690	0.971000
O1011	O101	0.028570	0.161740	0.656850
O1021	O102	0.028530	0.182410	0.697280
O1031	O103	0.195560	0.344200	0.811620
O1041	O104	0.242620	0.367990	0.834490
C4571	C457	0.221430	0.436360	0.838570
C4581	C458	0.221370	0.463850	0.843500
C4591	C459	0.198600	0.467370	0.842930
H2651	H265	0.182300	0.452100	0.839000
C4601	C460	0.199450	0.492290	0.847980
H2661	H266	0.183600	0.494000	0.847400
C4611	C461	0.223170	0.515430	0.853960
C4621	C462	0.244420	0.511170	0.853370
H2671	H267	0.260200	0.526000	0.856000
C4631	C463	0.244540	0.486740	0.849260
H2681	H268	0.260700	0.485500	0.850400
C4641	C464	0.223250	0.542850	0.858740
C4651	C465	0.214770	0.554920	0.876750
H2691	H269	0.208900	0.546100	0.886400
C4661	C466	0.214710	0.580010	0.880820
C4671	C467	0.222540	0.590610	0.866230
H2701	H270	0.222100	0.607400	0.868700
C4681	C468	0.231590	0.580000	0.847230
C4691	C469	0.231870	0.556410	0.844220
H2711	H271	0.238000	0.548300	0.832100
C4701	C470	0.206880	0.592430	0.900770
C4711	C471	0.190340	0.577850	0.908530
H2721	H272	0.183100	0.558100	0.900400
C4721	C472	0.183850	0.590890	0.927700
H2731	H273	0.171800	0.580100	0.932300
C4731	C473	0.194960	0.620170	0.940570
C4741	C474	0.211420	0.634170	0.933310
H2741	H274	0.219400	0.654000	0.941800
C4751	C475	0.217260	0.620850	0.914010
H2751	H275	0.229200	0.631800	0.909400
C4761	C476	0.188880	0.633350	0.962310
C4771	C477	0.035810	0.168770	0.682060
C4781	C478	0.057240	0.162640	0.696880
C4791	C479	0.069660	0.151050	0.683250
H2761	H276	0.064300	0.147300	0.664600
C4801	C480	0.089620	0.144900	0.696340
H2771	H277	0.097800	0.137100	0.686700
C4811	C481	0.097570	0.150160	0.723570
C4821	C482	0.085980	0.162420	0.737540
H2781	H278	0.091800	0.166900	0.756500
C4831	C483	0.065710	0.168280	0.723710
H2791	H279	0.057800	0.176400	0.733400
C4841	C484	0.120150	0.145400	0.739970
C4851	C485	0.138000	0.162590	0.769130
H2801	H280	0.135200	0.177100	0.779100
H2811	H281	0.187100	0.170300	0.823400
C4861	C486	0.202120	0.226960	0.818040
H2821	H282	0.185900	0.228000	0.816900
C4871	C487	0.222930	0.248320	0.819310
C4881	C488	0.220980	0.272060	0.819960
C4891	C489	0.244700	0.297720	0.834420
H2831	H283	0.262400	0.299600	0.844800
C4901	C490	0.243660	0.321030	0.834370
H2841	H284	0.260700	0.338400	0.844100
C4911	C491	0.217960	0.319540	0.820220
C4921	C492	0.194270	0.294650	0.806520
H2851	H285	0.176400	0.292700	0.796900
C4931	C493	0.196660	0.271770	0.806970
H2861	H286	0.179700	0.254400	0.797300
C4941	C494	0.218760	0.346120	0.821720
O1051	O105	0.590470	0.372830	0.175900
O1061	O106	0.591020	0.397730	0.153330
O1071	O107	0.648060	0.205250	0.029110
O1081	O108	0.687690	0.225310	0.029000
O1091	O109	0.504890	0.371720	0.343150
O1101	O110	0.485130	0.331250	0.302720
O1111	O111	0.532580	0.383940	0.188380
O1121	O112	0.533500	0.408130	0.165510
C4951	C495	0.597790	0.382860	0.161430
C4961	C496	0.620350	0.377870	0.156500
C4971	C497	0.624440	0.355670	0.157070
H2871	H287	0.613100	0.343300	0.161000
C4981	C498	0.644310	0.351470	0.152020
H2881	H288	0.646600	0.336200	0.152600
C4991	C499	0.661470	0.369210	0.146040
C5001	C500	0.657800	0.391050	0.146630
H2891	H289	0.670000	0.404200	0.144000
C5011	C501	0.637480	0.395280	0.150740
H2901	H290	0.635100	0.410300	0.149600
C5021	C502	0.684110	0.364510	0.141260
C5031	C503	0.678170	0.338020	0.123250
H2911	H291	0.659700	0.322500	0.113600
C5041	C504	0.699190	0.333890	0.119180
C5051	C505	0.724380	0.356310	0.133770
H2921	H292	0.738700	0.353400	0.131300
C5061	C506	0.732770	0.384360	0.152770
C5071	C507	0.712190	0.387650	0.155780
H2931	H293	0.716200	0.405900	0.167900
C5081	C508	0.691660	0.306110	0.099230
C5091	C509	0.669320	0.281810	0.091470
H2941	H294	0.657700	0.282700	0.099600
C5101	C510	0.663190	0.256150	0.072300
H2951	H295	0.647800	0.239500	0.067700
C5111	C511	0.679600	0.254390	0.059430
C5121	C512	0.700860	0.278110	0.066690
H2961	H296	0.712200	0.277600	0.058200
C5131	C513	0.706840	0.303250	0.085990
H2971	H297	0.722400	0.319800	0.090600
C5141	C514	0.671040	0.226570	0.037690
C5151	C515	0.486710	0.353750	0.317940
C5161	C516	0.465760	0.360360	0.303120
C5171	C517	0.467800	0.386410	0.316750
H2981	H298	0.482700	0.399700	0.335400
C5181	C518	0.448560	0.393280	0.303660
H2991	H299	0.450400	0.411100	0.313300
C5191	C519	0.426590	0.374000	0.276430
C5201	C520	0.424880	0.348440	0.262460
H3001	H300	0.410400	0.335300	0.243500
C5211	C521	0.444570	0.342000	0.276290
H3011	H301	0.443000	0.324400	0.266600
C5221	C522	0.405430	0.380180	0.260030
C5231	C523	0.393460	0.368870	0.230870
H3021	H302	0.398000	0.356100	0.220900
H3031	H303	0.346900	0.363700	0.176600
C5241	C524	0.408920	0.384080	0.181960
H3041	H304	0.411100	0.369000	0.183100
C5251	C525	0.429010	0.403620	0.180690
C5261	C526	0.452100	0.401020	0.180040
C5271	C527	0.463300	0.410280	0.165580
H3051	H305	0.454800	0.417600	0.155200
C5281	C528	0.486660	0.409290	0.165630
H3061	H306	0.494300	0.416600	0.155900
C5291	C529	0.499320	0.397740	0.179780
C5301	C530	0.488130	0.387750	0.193480
H3071	H307	0.495800	0.379500	0.203100
C5311	C531	0.464800	0.389690	0.193030
H3081	H308	0.457100	0.382400	0.202700
C5321	C532	0.524400	0.397040	0.178280
O1131	O113	0.803070	0.627170	0.217640
O1141	O114	0.755600	0.602270	0.193290
O1151	O115	0.823860	0.794750	0.442810
O1161	O116	0.803690	0.774690	0.462380
O1171	O117	0.971430	0.628280	0.133170
O1181	O118	0.971470	0.668750	0.153880
O1191	O119	0.804440	0.616060	0.148640
O1201	O120	0.757380	0.591870	0.125370
C5331	C533	0.778570	0.617140	0.214930
C5341	C534	0.778630	0.622130	0.242480
C5351	C535	0.801400	0.644330	0.268770
H3091	H309	0.817700	0.656700	0.269800
C5361	C536	0.800550	0.648530	0.292840
H3101	H310	0.816400	0.663800	0.310400
C5371	C537	0.776830	0.630790	0.292260
C5381	C538	0.755580	0.608950	0.266750
H3111	H311	0.739800	0.595800	0.265800
C5391	C539	0.755460	0.604720	0.242200
H3121	H312	0.739300	0.589700	0.224800
C5401	C540	0.776750	0.635490	0.319600
C5411	C541	0.785230	0.661980	0.340150
H3131	H313	0.791100	0.677500	0.337200
C5421	C542	0.785290	0.666110	0.365300
C5431	C543	0.777460	0.643690	0.368070
H3141	H314	0.777900	0.646600	0.385300
C5441	C544	0.768410	0.615640	0.348410
C5451	C545	0.768130	0.612350	0.324540
H3151	H315	0.762000	0.594100	0.310300
C5461	C546	0.793120	0.693890	0.385550
C5471	C547	0.809660	0.718190	0.387510
H3161	H316	0.816900	0.717300	0.375000
C5481	C548	0.816150	0.743850	0.407040
H3171	H317	0.828200	0.760500	0.408300
C5491	C549	0.805040	0.745610	0.425210
C5501	C550	0.788580	0.721890	0.422750
H3181	H318	0.780600	0.722400	0.434600
C5511	C551	0.782740	0.696750	0.403590
H3191	H319	0.770800	0.680200	0.402600
C5521	C552	0.811120	0.773430	0.444470
C5531	C553	0.964190	0.646250	0.132960
C5541	C554	0.942760	0.639640	0.105400
C5551	C555	0.930340	0.613590	0.081390
H3201	H320	0.935700	0.600300	0.083000
C5561	C556	0.910380	0.606720	0.055280
H3211	H321	0.902200	0.588900	0.039300
C5571	C557	0.902430	0.626000	0.052590
C5581	C558	0.914020	0.651560	0.076440
H3221	H322	0.908200	0.664700	0.075100
C5591	C559	0.934290	0.658000	0.102570
H3231	H323	0.942200	0.675600	0.118600
C5601	C560	0.879850	0.619820	0.025250
C5611	C561	0.862000	0.631130	0.024590
H3241	H324	0.864800	0.643900	0.041900
H3251	H325	0.812900	0.636300	0.983200
C5621	C562	0.797880	0.615920	0.024840
H3261	H326	0.814100	0.631000	0.042100
C5631	C563	0.777070	0.596380	0.025390
C5641	C564	0.779020	0.598980	0.051080
C5651	C565	0.755300	0.589720	0.053020
H3271	H327	0.737600	0.582400	0.037200
C5661	C566	0.756340	0.590710	0.077370
H3281	H328	0.739300	0.583400	0.077700
C5671	C567	0.782040	0.602260	0.101580
C5681	C568	0.805730	0.612250	0.100380
H3291	H329	0.823600	0.620500	0.116300
C5691	C569	0.803340	0.610310	0.075110
H3301	H330	0.820300	0.617600	0.074700
C5701	C570	0.781240	0.602960	0.127360
O1211	O121	0.409530	0.585430	0.782360
O1221	O122	0.408980	0.562310	0.806710
O1231	O123	0.351940	0.381050	0.557190
O1241	O124	0.312310	0.341310	0.537620
O1251	O125	0.495110	0.838260	0.866830
O1261	O126	0.514870	0.817590	0.846120
O1271	O127	0.467420	0.655800	0.851360
O1281	O128	0.466500	0.632010	0.874630
C5711	C571	0.402210	0.563640	0.785070
C5721	C572	0.379650	0.536150	0.757520
C5731	C573	0.375560	0.532630	0.731230
H3311	H331	0.386900	0.547900	0.730200
C5741	C574	0.355690	0.507710	0.707160
H3321	H332	0.353400	0.506000	0.689600
C5751	C575	0.338530	0.484570	0.707740
C5761	C576	0.342200	0.488830	0.733250
H3331	H333	0.330000	0.474000	0.734200
C5771	C577	0.362520	0.513260	0.757800
H3341	H334	0.364900	0.514500	0.775200
C5781	C578	0.315890	0.457150	0.680400
C5791	C579	0.321830	0.445080	0.659850
H3351	H335	0.340300	0.453900	0.662800
C5801	C580	0.300810	0.419990	0.634700
C5811	C581	0.275620	0.409390	0.631930
H3361	H336	0.261300	0.392600	0.614700
C5821	C582	0.267230	0.420000	0.651590
C5831	C583	0.287810	0.443590	0.675460
H3371	H337	0.283800	0.451700	0.689700
C5841	C584	0.308340	0.407570	0.614450
C5851	C585	0.330680	0.422150	0.612490
H3381	H338	0.342300	0.441900	0.625000
C5861	C586	0.336810	0.409110	0.592960
H3391	H339	0.352200	0.419900	0.591700
C5871	C587	0.320400	0.379830	0.574790
C5881	C588	0.299140	0.365830	0.577250
H3401	H340	0.287800	0.346000	0.565400
C5891	C589	0.293160	0.379150	0.596410
H3411	H341	0.277600	0.368200	0.597400
C5901	C590	0.328960	0.366650	0.555530
C5911	C591	0.513290	0.831230	0.867040
C5921	C592	0.534240	0.837360	0.894600
C5931	C593	0.532200	0.848950	0.918610
H3421	H342	0.517300	0.852700	0.917000
C5941	C594	0.551440	0.855100	0.944720
H3431	H343	0.549600	0.862900	0.960700
C5951	C595	0.573410	0.849840	0.947410
C5961	C596	0.575120	0.837580	0.923560
H3441	H344	0.589600	0.833100	0.924900
C5971	C597	0.555430	0.831720	0.897430
H3451	H345	0.557000	0.823600	0.881400
C5981	C598	0.594570	0.854600	0.974750
C5991	C599	0.606540	0.837410	0.975410
H3461	H346	0.602000	0.822900	0.958100
H3471	H347	0.653100	0.829700	0.016800
C6001	C600	0.591080	0.773040	0.975160
H3481	H348	0.588900	0.772000	0.957900
C6011	C601	0.570990	0.751680	0.974610
C6021	C602	0.547900	0.727940	0.948920
C6031	C603	0.536700	0.702280	0.946980
H3491	H349	0.545200	0.700400	0.962800
C6041	C604	0.513340	0.678970	0.922630
H3501	H350	0.505700	0.661600	0.922300
C6051	C605	0.500680	0.680460	0.898420
C6061	C606	0.511870	0.705350	0.899620
H3511	H351	0.504200	0.707300	0.883700
C6071	C607	0.535200	0.728230	0.924890
H3521	H352	0.542900	0.745600	0.925300
C6081	C608	0.475600	0.653880	0.872640
O1291	O129	0.585430	0.782360	0.409530
O1301	O130	0.562310	0.806710	0.408980
O1311	O131	0.381050	0.557190	0.351940
O1321	O132	0.341310	0.537620	0.312310
O1331	O133	0.838260	0.866830	0.495110
O1341	O134	0.817590	0.846120	0.514870
O1351	O135	0.655800	0.851360	0.467420
O1361	O136	0.632010	0.874630	0.466500
C6091	C609	0.563640	0.785070	0.402210
C6101	C610	0.536150	0.757520	0.379650
C6111	C611	0.532630	0.731230	0.375560
H3531	H353	0.547900	0.730200	0.386900
C6121	C612	0.507710	0.707160	0.355690
H3541	H354	0.506000	0.689600	0.353400
C6131	C613	0.484570	0.707740	0.338530
C6141	C614	0.488830	0.733250	0.342200
H3551	H355	0.474000	0.734200	0.330000
C6151	C615	0.513260	0.757800	0.362520
H3561	H356	0.514500	0.775200	0.364900
C6161	C616	0.457150	0.680400	0.315890
C6171	C617	0.445080	0.659850	0.321830
H3571	H357	0.453900	0.662800	0.340300
C6181	C618	0.419990	0.634700	0.300810
C6191	C619	0.409390	0.631930	0.275620
H3581	H358	0.392600	0.614700	0.261300
C6201	C620	0.420000	0.651590	0.267230
C6211	C621	0.443590	0.675460	0.287810
H3591	H359	0.451700	0.689700	0.283800
C6221	C622	0.407570	0.614450	0.308340
C6231	C623	0.422150	0.612490	0.330680
H3601	H360	0.441900	0.625000	0.342300
C6241	C624	0.409110	0.592960	0.336810
H3611	H361	0.419900	0.591700	0.352200
C6251	C625	0.379830	0.574790	0.320400
C6261	C626	0.365830	0.577250	0.299140
H3621	H362	0.346000	0.565400	0.287800
C6271	C627	0.379150	0.596410	0.293160
H3631	H363	0.368200	0.597400	0.277600
C6281	C628	0.366650	0.555530	0.328960
C6291	C629	0.831230	0.867040	0.513290
C6301	C630	0.837360	0.894600	0.534240
C6311	C631	0.848950	0.918610	0.532200
H3641	H364	0.852700	0.917000	0.517300
C6321	C632	0.855100	0.944720	0.551440
H3651	H365	0.862900	0.960700	0.549600
C6331	C633	0.849840	0.947410	0.573410
C6341	C634	0.837580	0.923560	0.575120
H3661	H366	0.833100	0.924900	0.589600
C6351	C635	0.831720	0.897430	0.555430
H3671	H367	0.823600	0.881400	0.557000
C6361	C636	0.854600	0.974750	0.594570
C6371	C637	0.837410	0.975410	0.606540
H3681	H368	0.822900	0.958100	0.602000
H3691	H369	0.829700	0.016800	0.653100
C6381	C638	0.773040	0.975160	0.591080
H3701	H370	0.772000	0.957900	0.588900
C6391	C639	0.751680	0.974610	0.570990
C6401	C640	0.727940	0.948920	0.547900
C6411	C641	0.702280	0.946980	0.536700
H3711	H371	0.700400	0.962800	0.545200
C6421	C642	0.678970	0.922630	0.513340
H3721	H372	0.661600	0.922300	0.505700
C6431	C643	0.680460	0.898420	0.500680
C6441	C644	0.705350	0.899620	0.511870
H3731	H373	0.707300	0.883700	0.504200
C6451	C645	0.728230	0.924890	0.535200
H3741	H374	0.745600	0.925300	0.542900
C6461	C646	0.653880	0.872640	0.475600
O1371	O137	0.627170	0.217640	0.803070
O1381	O138	0.602270	0.193290	0.755600
O1391	O139	0.794750	0.442810	0.823860
O1401	O140	0.774690	0.462380	0.803690
O1411	O141	0.628280	0.133170	0.971430
O1421	O142	0.668750	0.153880	0.971470
O1431	O143	0.616060	0.148640	0.804440
O1441	O144	0.591870	0.125370	0.757380
C6471	C647	0.617140	0.214930	0.778570
C6481	C648	0.622130	0.242480	0.778630
C6491	C649	0.644330	0.268770	0.801400
H3751	H375	0.656700	0.269800	0.817700
C6501	C650	0.648530	0.292840	0.800550
H3761	H376	0.663800	0.310400	0.816400
C6511	C651	0.630790	0.292260	0.776830
C6521	C652	0.608950	0.266750	0.755580
H3771	H377	0.595800	0.265800	0.739800
C6531	C653	0.604720	0.242200	0.755460
H3781	H378	0.589700	0.224800	0.739300
C6541	C654	0.635490	0.319600	0.776750
C6551	C655	0.661980	0.340150	0.785230
H3791	H379	0.677500	0.337200	0.791100
C6561	C656	0.666110	0.365300	0.785290
C6571	C657	0.643690	0.368070	0.777460
H3801	H380	0.646600	0.385300	0.777900
C6581	C658	0.615640	0.348410	0.768410
C6591	C659	0.612350	0.324540	0.768130
H3811	H381	0.594100	0.310300	0.762000
C6601	C660	0.693890	0.385550	0.793120
C6611	C661	0.718190	0.387510	0.809660
H3821	H382	0.717300	0.375000	0.816900
C6621	C662	0.743850	0.407040	0.816150
H3831	H383	0.760500	0.408300	0.828200
C6631	C663	0.745610	0.425210	0.805040
C6641	C664	0.721890	0.422750	0.788580
H3841	H384	0.722400	0.434600	0.780600
C6651	C665	0.696750	0.403590	0.782740
H3851	H385	0.680200	0.402600	0.770800
C6661	C666	0.773430	0.444470	0.811120
C6671	C667	0.646250	0.132960	0.964190
C6681	C668	0.639640	0.105400	0.942760
C6691	C669	0.613590	0.081390	0.930340
H3861	H386	0.600300	0.083000	0.935700
C6701	C670	0.606720	0.055280	0.910380
H3871	H387	0.588900	0.039300	0.902200
C6711	C671	0.626000	0.052590	0.902430
C6721	C672	0.651560	0.076440	0.914020
H3881	H388	0.664700	0.075100	0.908200
C6731	C673	0.658000	0.102570	0.934290
H3891	H389	0.675600	0.118600	0.942200
C6741	C674	0.619820	0.025250	0.879850
C6751	C675	0.631130	0.024590	0.862000
H3901	H390	0.643900	0.041900	0.864800
H3911	H391	0.636300	0.983200	0.812900
C6761	C676	0.615920	0.024840	0.797880
H3921	H392	0.631000	0.042100	0.814100
C6771	C677	0.596380	0.025390	0.777070
C6781	C678	0.598980	0.051080	0.779020
C6791	C679	0.589720	0.053020	0.755300
H3931	H393	0.582400	0.037200	0.737600
C6801	C680	0.590710	0.077370	0.756340
H3941	H394	0.583400	0.077700	0.739300
C6811	C681	0.602260	0.101580	0.782040
C6821	C682	0.612250	0.100380	0.805730
H3951	H395	0.620500	0.116300	0.823600
C6831	C683	0.610310	0.075110	0.803340
H3961	H396	0.617600	0.074700	0.820300
C6841	C684	0.602960	0.127360	0.781240
O1451	O145	0.372830	0.175900	0.590470
O1461	O146	0.397730	0.153330	0.591020
O1471	O147	0.205250	0.029110	0.648060
O1481	O148	0.225310	0.029000	0.687690
O1491	O149	0.371720	0.343150	0.504890
O1501	O150	0.331250	0.302720	0.485130
O1511	O151	0.383940	0.188380	0.532580
O1521	O152	0.408130	0.165510	0.533500
C6851	C685	0.382860	0.161430	0.597790
C6861	C686	0.377870	0.156500	0.620350
C6871	C687	0.355670	0.157070	0.624440
H3971	H397	0.343300	0.161000	0.613100
C6881	C688	0.351470	0.152020	0.644310
H3981	H398	0.336200	0.152600	0.646600
C6891	C689	0.369210	0.146040	0.661470
C6901	C690	0.391050	0.146630	0.657800
H3991	H399	0.404200	0.144000	0.670000
C6911	C691	0.395280	0.150740	0.637480
H4001	H400	0.410300	0.149600	0.635100
C6921	C692	0.364510	0.141260	0.684110
C6931	C693	0.338020	0.123250	0.678170
H4011	H401	0.322500	0.113600	0.659700
C6941	C694	0.333890	0.119180	0.699190
C6951	C695	0.356310	0.133770	0.724380
H4021	H402	0.353400	0.131300	0.738700
C6961	C696	0.384360	0.152770	0.732770
C6971	C697	0.387650	0.155780	0.712190
H4031	H403	0.405900	0.167900	0.716200
C6981	C698	0.306110	0.099230	0.691660
C6991	C699	0.281810	0.091470	0.669320
H4041	H404	0.282700	0.099600	0.657700
C7001	C700	0.256150	0.072300	0.663190
H4051	H405	0.239500	0.067700	0.647800
C7011	C701	0.254390	0.059430	0.679600
C7021	C702	0.278110	0.066690	0.700860
H4061	H406	0.277600	0.058200	0.712200
C7031	C703	0.303250	0.085990	0.706840
H4071	H407	0.319800	0.090600	0.722400
C7041	C704	0.226570	0.037690	0.671040
C7051	C705	0.353750	0.317940	0.486710
C7061	C706	0.360360	0.303120	0.465760
C7071	C707	0.386410	0.316750	0.467800
H4081	H408	0.399700	0.335400	0.482700
C7081	C708	0.393280	0.303660	0.448560
H4091	H409	0.411100	0.313300	0.450400
C7091	C709	0.374000	0.276430	0.426590
C7101	C710	0.348440	0.262460	0.424880
H4101	H410	0.335300	0.243500	0.410400
C7111	C711	0.342000	0.276290	0.444570
H4111	H411	0.324400	0.266600	0.443000
C7121	C712	0.380180	0.260030	0.405430
C7131	C713	0.368870	0.230870	0.393460
H4121	H412	0.356100	0.220900	0.398000
H4131	H413	0.363700	0.176600	0.346900
C7141	C714	0.384080	0.181960	0.408920
H4141	H414	0.369000	0.183100	0.411100
C7151	C715	0.403620	0.180690	0.429010
C7161	C716	0.401020	0.180040	0.452100
C7171	C717	0.410280	0.165580	0.463300
H4151	H415	0.417600	0.155200	0.454800
C7181	C718	0.409290	0.165630	0.486660
H4161	H416	0.416600	0.155900	0.494300
C7191	C719	0.397740	0.179780	0.499320
C7201	C720	0.387750	0.193480	0.488130
H4171	H417	0.379500	0.203100	0.495800
C7211	C721	0.389690	0.193030	0.464800
H4181	H418	0.382400	0.202700	0.457100
C7221	C722	0.397040	0.178280	0.524400
O1531	O153	0.414570	0.824100	0.196930
O1541	O154	0.437690	0.846670	0.244400
O1551	O155	0.618950	0.970890	0.176140
O1561	O156	0.658690	0.971000	0.196310
O1571	O157	0.161740	0.656850	0.028570
O1581	O158	0.182410	0.697280	0.028530
O1591	O159	0.344200	0.811620	0.195560
O1601	O160	0.367990	0.834490	0.242620
C7231	C723	0.436360	0.838570	0.221430
C7241	C724	0.463850	0.843500	0.221370
C7251	C725	0.467370	0.842930	0.198600
H4191	H419	0.452100	0.839000	0.182300
C7261	C726	0.492290	0.847980	0.199450
H4201	H420	0.494000	0.847400	0.183600
C7271	C727	0.515430	0.853960	0.223170
C7281	C728	0.511170	0.853370	0.244420
H4211	H421	0.526000	0.856000	0.260200
C7291	C729	0.486740	0.849260	0.244540
H4221	H422	0.485500	0.850400	0.260700
C7301	C730	0.542850	0.858740	0.223250
C7311	C731	0.554920	0.876750	0.214770
H4231	H423	0.546100	0.886400	0.208900
C7321	C732	0.580010	0.880820	0.214710
C7331	C733	0.590610	0.866230	0.222540
H4241	H424	0.607400	0.868700	0.222100
C7341	C734	0.580000	0.847230	0.231590
C7351	C735	0.556410	0.844220	0.231870
H4251	H425	0.548300	0.832100	0.238000
C7361	C736	0.592430	0.900770	0.206880
C7371	C737	0.577850	0.908530	0.190340
H4261	H426	0.558100	0.900400	0.183100
C7381	C738	0.590890	0.927700	0.183850
H4271	H427	0.580100	0.932300	0.171800
C7391	C739	0.620170	0.940570	0.194960
C7401	C740	0.634170	0.933310	0.211420
H4281	H428	0.654000	0.941800	0.219400
C7411	C741	0.620850	0.914010	0.217260
H4291	H429	0.631800	0.909400	0.229200
C7421	C742	0.633350	0.962310	0.188880
C7431	C743	0.168770	0.682060	0.035810
C7441	C744	0.162640	0.696880	0.057240
C7451	C745	0.151050	0.683250	0.069660
H4301	H430	0.147300	0.664600	0.064300
C7461	C746	0.144900	0.696340	0.089620
H4311	H431	0.137100	0.686700	0.097800
C7471	C747	0.150160	0.723570	0.097570
C7481	C748	0.162420	0.737540	0.085980
H4321	H432	0.166900	0.756500	0.091800
C7491	C749	0.168280	0.723710	0.065710
H4331	H433	0.176400	0.733400	0.057800
C7501	C750	0.145400	0.739970	0.120150
C7511	C751	0.162590	0.769130	0.138000
H4341	H434	0.177100	0.779100	0.135200
H4351	H435	0.170300	0.823400	0.187100
C7521	C752	0.226960	0.818040	0.202120
H4361	H436	0.228000	0.816900	0.185900
C7531	C753	0.248320	0.819310	0.222930
C7541	C754	0.272060	0.819960	0.220980
C7551	C755	0.297720	0.834420	0.244700
H4371	H437	0.299600	0.844800	0.262400
C7561	C756	0.321030	0.834370	0.243660
H4381	H438	0.338400	0.844100	0.260700
C7571	C757	0.319540	0.820220	0.217960
C7581	C758	0.294650	0.806520	0.194270
H4391	H439	0.292700	0.796900	0.176400
C7591	C759	0.271770	0.806970	0.196660
H4401	H440	0.254400	0.797300	0.179700
C7601	C760	0.346120	0.821720	0.218760
O1611	O161	0.217640	0.803070	0.627170
O1621	O162	0.193290	0.755600	0.602270
O1631	O163	0.442810	0.823860	0.794750
O1641	O164	0.462380	0.803690	0.774690
O1651	O165	0.133170	0.971430	0.628280
O1661	O166	0.153880	0.971470	0.668750
O1671	O167	0.148640	0.804440	0.616060
O1681	O168	0.125370	0.757380	0.591870
C7611	C761	0.214930	0.778570	0.617140
C7621	C762	0.242480	0.778630	0.622130
C7631	C763	0.268770	0.801400	0.644330
H4411	H441	0.269800	0.817700	0.656700
C7641	C764	0.292840	0.800550	0.648530
H4421	H442	0.310400	0.816400	0.663800
C7651	C765	0.292260	0.776830	0.630790
C7661	C766	0.266750	0.755580	0.608950
H4431	H443	0.265800	0.739800	0.595800
C7671	C767	0.242200	0.755460	0.604720
H4441	H444	0.224800	0.739300	0.589700
C7681	C768	0.319600	0.776750	0.635490
C7691	C769	0.340150	0.785230	0.661980
H4451	H445	0.337200	0.791100	0.677500
C7701	C770	0.365300	0.785290	0.666110
C7711	C771	0.368070	0.777460	0.643690
H4461	H446	0.385300	0.777900	0.646600
C7721	C772	0.348410	0.768410	0.615640
C7731	C773	0.324540	0.768130	0.612350
H4471	H447	0.310300	0.762000	0.594100
C7741	C774	0.385550	0.793120	0.693890
C7751	C775	0.387510	0.809660	0.718190
H4481	H448	0.375000	0.816900	0.717300
C7761	C776	0.407040	0.816150	0.743850
H4491	H449	0.408300	0.828200	0.760500
C7771	C777	0.425210	0.805040	0.745610
C7781	C778	0.422750	0.788580	0.721890
H4501	H450	0.434600	0.780600	0.722400
C7791	C779	0.403590	0.782740	0.696750
H4511	H451	0.402600	0.770800	0.680200
C7801	C780	0.444470	0.811120	0.773430
C7811	C781	0.132960	0.964190	0.646250
C7821	C782	0.105400	0.942760	0.639640
C7831	C783	0.081390	0.930340	0.613590
H4521	H452	0.083000	0.935700	0.600300
C7841	C784	0.055280	0.910380	0.606720
H4531	H453	0.039300	0.902200	0.588900
C7851	C785	0.052590	0.902430	0.626000
C7861	C786	0.076440	0.914020	0.651560
H4541	H454	0.075100	0.908200	0.664700
C7871	C787	0.102570	0.934290	0.658000
H4551	H455	0.118600	0.942200	0.675600
C7881	C788	0.025250	0.879850	0.619820
C7891	C789	0.024590	0.862000	0.631130
H4561	H456	0.041900	0.864800	0.643900
H4571	H457	0.983200	0.812900	0.636300
C7901	C790	0.024840	0.797880	0.615920
H4581	H458	0.042100	0.814100	0.631000
C7911	C791	0.025390	0.777070	0.596380
C7921	C792	0.051080	0.779020	0.598980
C7931	C793	0.053020	0.755300	0.589720
H4591	H459	0.037200	0.737600	0.582400
C7941	C794	0.077370	0.756340	0.590710
H4601	H460	0.077700	0.739300	0.583400
C7951	C795	0.101580	0.782040	0.602260
C7961	C796	0.100380	0.805730	0.612250
H4611	H461	0.116300	0.823600	0.620500
C7971	C797	0.075110	0.803340	0.610310
H4621	H462	0.074700	0.820300	0.617600
C7981	C798	0.127360	0.781240	0.602960
O1691	O169	0.782360	0.409530	0.585430
O1701	O170	0.806710	0.408980	0.562310
O1711	O171	0.557190	0.351940	0.381050
O1721	O172	0.537620	0.312310	0.341310
O1731	O173	0.866830	0.495110	0.838260
O1741	O174	0.846120	0.514870	0.817590
O1751	O175	0.851360	0.467420	0.655800
O1761	O176	0.874630	0.466500	0.632010
C7991	C799	0.785070	0.402210	0.563640
C8001	C800	0.757520	0.379650	0.536150
C8011	C801	0.731230	0.375560	0.532630
H4631	H463	0.730200	0.386900	0.547900
C8021	C802	0.707160	0.355690	0.507710
H4641	H464	0.689600	0.353400	0.506000
C8031	C803	0.707740	0.338530	0.484570
C8041	C804	0.733250	0.342200	0.488830
H4651	H465	0.734200	0.330000	0.474000
C8051	C805	0.757800	0.362520	0.513260
H4661	H466	0.775200	0.364900	0.514500
C8061	C806	0.680400	0.315890	0.457150
C8071	C807	0.659850	0.321830	0.445080
H4671	H467	0.662800	0.340300	0.453900
C8081	C808	0.634700	0.300810	0.419990
C8091	C809	0.631930	0.275620	0.409390
H4681	H468	0.614700	0.261300	0.392600
C8101	C810	0.651590	0.267230	0.420000
C8111	C811	0.675460	0.287810	0.443590
H4691	H469	0.689700	0.283800	0.451700
C8121	C812	0.614450	0.308340	0.407570
C8131	C813	0.612490	0.330680	0.422150
H4701	H470	0.625000	0.342300	0.441900
C8141	C814	0.592960	0.336810	0.409110
H4711	H471	0.591700	0.352200	0.419900
C8151	C815	0.574790	0.320400	0.379830
C8161	C816	0.577250	0.299140	0.365830
H4721	H472	0.565400	0.287800	0.346000
C8171	C817	0.596410	0.293160	0.379150
H4731	H473	0.597400	0.277600	0.368200
C8181	C818	0.555530	0.328960	0.366650
C8191	C819	0.867040	0.513290	0.831230
C8201	C820	0.894600	0.534240	0.837360
C8211	C821	0.918610	0.532200	0.848950
H4741	H474	0.917000	0.517300	0.852700
C8221	C822	0.944720	0.551440	0.855100
H4751	H475	0.960700	0.549600	0.862900
C8231	C823	0.947410	0.573410	0.849840
C8241	C824	0.923560	0.575120	0.837580
H4761	H476	0.924900	0.589600	0.833100
C8251	C825	0.897430	0.555430	0.831720
H4771	H477	0.881400	0.557000	0.823600
C8261	C826	0.974750	0.594570	0.854600
C8271	C827	0.975410	0.606540	0.837410
H4781	H478	0.958100	0.602000	0.822900
H4791	H479	0.016800	0.653100	0.829700
C8281	C828	0.975160	0.591080	0.773040
H4801	H480	0.957900	0.588900	0.772000
C8291	C829	0.974610	0.570990	0.751680
C8301	C830	0.948920	0.547900	0.727940
C8311	C831	0.946980	0.536700	0.702280
H4811	H481	0.962800	0.545200	0.700400
C8321	C832	0.922630	0.513340	0.678970
H4821	H482	0.922300	0.505700	0.661600
C8331	C833	0.898420	0.500680	0.680460
C8341	C834	0.899620	0.511870	0.705350
H4831	H483	0.883700	0.504200	0.707300
C8351	C835	0.924890	0.535200	0.728230
H4841	H484	0.925300	0.542900	0.745600
C8361	C836	0.872640	0.475600	0.653880
O1771	O177	0.824100	0.196930	0.414570
O1781	O178	0.846670	0.244400	0.437690
O1791	O179	0.970890	0.176140	0.618950
O1801	O180	0.971000	0.196310	0.658690
O1811	O181	0.656850	0.028570	0.161740
O1821	O182	0.697280	0.028530	0.182410
O1831	O183	0.811620	0.195560	0.344200
O1841	O184	0.834490	0.242620	0.367990
C8371	C837	0.838570	0.221430	0.436360
C8381	C838	0.843500	0.221370	0.463850
C8391	C839	0.842930	0.198600	0.467370
H4851	H485	0.839000	0.182300	0.452100
C8401	C840	0.847980	0.199450	0.492290
H4861	H486	0.847400	0.183600	0.494000
C8411	C841	0.853960	0.223170	0.515430
C8421	C842	0.853370	0.244420	0.511170
H4871	H487	0.856000	0.260200	0.526000
C8431	C843	0.849260	0.244540	0.486740
H4881	H488	0.850400	0.260700	0.485500
C8441	C844	0.858740	0.223250	0.542850
C8451	C845	0.876750	0.214770	0.554920
H4891	H489	0.886400	0.208900	0.546100
C8461	C846	0.880820	0.214710	0.580010
C8471	C847	0.866230	0.222540	0.590610
H4901	H490	0.868700	0.222100	0.607400
C8481	C848	0.847230	0.231590	0.580000
C8491	C849	0.844220	0.231870	0.556410
H4911	H491	0.832100	0.238000	0.548300
C8501	C850	0.900770	0.206880	0.592430
C8511	C851	0.908530	0.190340	0.577850
H4921	H492	0.900400	0.183100	0.558100
C8521	C852	0.927700	0.183850	0.590890
H4931	H493	0.932300	0.171800	0.580100
C8531	C853	0.940570	0.194960	0.620170
C8541	C854	0.933310	0.211420	0.634170
H4941	H494	0.941800	0.219400	0.654000
C8551	C855	0.914010	0.217260	0.620850
H4951	H495	0.909400	0.229200	0.631800
C8561	C856	0.962310	0.188880	0.633350
C8571	C857	0.682060	0.035810	0.168770
C8581	C858	0.696880	0.057240	0.162640
C8591	C859	0.683250	0.069660	0.151050
H4961	H496	0.664600	0.064300	0.147300
C8601	C860	0.696340	0.089620	0.144900
H4971	H497	0.686700	0.097800	0.137100
C8611	C861	0.723570	0.097570	0.150160
C8621	C862	0.737540	0.085980	0.162420
H4981	H498	0.756500	0.091800	0.166900
C8631	C863	0.723710	0.065710	0.168280
H4991	H499	0.733400	0.057800	0.176400
C8641	C864	0.739970	0.120150	0.145400
C8651	C865	0.769130	0.138000	0.162590
H5001	H500	0.779100	0.135200	0.177100
H5011	H501	0.823400	0.187100	0.170300
C8661	C866	0.818040	0.202120	0.226960
H5021	H502	0.816900	0.185900	0.228000
C8671	C867	0.819310	0.222930	0.248320
C8681	C868	0.819960	0.220980	0.272060
C8691	C869	0.834420	0.244700	0.297720
H5031	H503	0.844800	0.262400	0.299600
C8701	C870	0.834370	0.243660	0.321030
H5041	H504	0.844100	0.260700	0.338400
C8711	C871	0.820220	0.217960	0.319540
C8721	C872	0.806520	0.194270	0.294650
H5051	H505	0.796900	0.176400	0.292700
C8731	C873	0.806970	0.196660	0.271770
H5061	H506	0.797300	0.179700	0.254400
C8741	C874	0.821720	0.218760	0.346120
O1851	O185	0.175900	0.590470	0.372830
O1861	O186	0.153330	0.591020	0.397730
O1871	O187	0.029110	0.648060	0.205250
O1881	O188	0.029000	0.687690	0.225310
O1891	O189	0.343150	0.504890	0.371720
O1901	O190	0.302720	0.485130	0.331250
O1911	O191	0.188380	0.532580	0.383940
O1921	O192	0.165510	0.533500	0.408130
C8751	C875	0.161430	0.597790	0.382860
C8761	C876	0.156500	0.620350	0.377870
C8771	C877	0.157070	0.624440	0.355670
H5071	H507	0.161000	0.613100	0.343300
C8781	C878	0.152020	0.644310	0.351470
H5081	H508	0.152600	0.646600	0.336200
C8791	C879	0.146040	0.661470	0.369210
C8801	C880	0.146630	0.657800	0.391050
H5091	H509	0.144000	0.670000	0.404200
C8811	C881	0.150740	0.637480	0.395280
H5101	H510	0.149600	0.635100	0.410300
C8821	C882	0.141260	0.684110	0.364510
C8831	C883	0.123250	0.678170	0.338020
H5111	H511	0.113600	0.659700	0.322500
C8841	C884	0.119180	0.699190	0.333890
C8851	C885	0.133770	0.724380	0.356310
H5121	H512	0.131300	0.738700	0.353400
C8861	C886	0.152770	0.732770	0.384360
C8871	C887	0.155780	0.712190	0.387650
H5131	H513	0.167900	0.716200	0.405900
C8881	C888	0.099230	0.691660	0.306110
C8891	C889	0.091470	0.669320	0.281810
H5141	H514	0.099600	0.657700	0.282700
C8901	C890	0.072300	0.663190	0.256150
H5151	H515	0.067700	0.647800	0.239500
C8911	C891	0.059430	0.679600	0.254390
C8921	C892	0.066690	0.700860	0.278110
H5161	H516	0.058200	0.712200	0.277600
C8931	C893	0.085990	0.706840	0.303250
H5171	H517	0.090600	0.722400	0.319800
C8941	C894	0.037690	0.671040	0.226570
C8951	C895	0.317940	0.486710	0.353750
C8961	C896	0.303120	0.465760	0.360360
C8971	C897	0.316750	0.467800	0.386410
H5181	H518	0.335400	0.482700	0.399700
C8981	C898	0.303660	0.448560	0.393280
H5191	H519	0.313300	0.450400	0.411100
C8991	C899	0.276430	0.426590	0.374000
C9001	C900	0.262460	0.424880	0.348440
H5201	H520	0.243500	0.410400	0.335300
C9011	C901	0.276290	0.444570	0.342000
H5211	H521	0.266600	0.443000	0.324400
C9021	C902	0.260030	0.405430	0.380180
C9031	C903	0.230870	0.393460	0.368870
H5221	H522	0.220900	0.398000	0.356100
H5231	H523	0.176600	0.346900	0.363700
C9041	C904	0.181960	0.408920	0.384080
H5241	H524	0.183100	0.411100	0.369000
C9051	C905	0.180690	0.429010	0.403620
C9061	C906	0.180040	0.452100	0.401020
C9071	C907	0.165580	0.463300	0.410280
H5251	H525	0.155200	0.454800	0.417600
C9081	C908	0.165630	0.486660	0.409290
H5261	H526	0.155900	0.494300	0.416600
C9091	C909	0.179780	0.499320	0.397740
C9101	C910	0.193480	0.488130	0.387750
H5271	H527	0.203100	0.495800	0.379500
C9111	C911	0.193030	0.464800	0.389690
H5281	H528	0.202700	0.457100	0.382400
C9121	C912	0.178280	0.524400	0.397040
O1931	O193	0.372830	0.590470	0.175900
O1941	O194	0.397730	0.591020	0.153330
O1951	O195	0.205250	0.648060	0.029110
O1961	O196	0.225310	0.687690	0.029000
O1971	O197	0.371720	0.504890	0.343150
O1981	O198	0.331250	0.485130	0.302720
O1991	O199	0.383940	0.532580	0.188380
O2001	O200	0.408130	0.533500	0.165510
C9131	C913	0.382860	0.597790	0.161430
C9141	C914	0.377870	0.620350	0.156500
C9151	C915	0.355670	0.624440	0.157070
H5291	H529	0.343300	0.613100	0.161000
C9161	C916	0.351470	0.644310	0.152020
H5301	H530	0.336200	0.646600	0.152600
C9171	C917	0.369210	0.661470	0.146040
C9181	C918	0.391050	0.657800	0.146630
H5311	H531	0.404200	0.670000	0.144000
C9191	C919	0.395280	0.637480	0.150740
H5321	H532	0.410300	0.635100	0.149600
C9201	C920	0.364510	0.684110	0.141260
C9211	C921	0.338020	0.678170	0.123250
H5331	H533	0.322500	0.659700	0.113600
C9221	C922	0.333890	0.699190	0.119180
C9231	C923	0.356310	0.724380	0.133770
H5341	H534	0.353400	0.738700	0.131300
C9241	C924	0.384360	0.732770	0.152770
C9251	C925	0.387650	0.712190	0.155780
H5351	H535	0.405900	0.716200	0.167900
C9261	C926	0.306110	0.691660	0.099230
C9271	C927	0.281810	0.669320	0.091470
H5361	H536	0.282700	0.657700	0.099600
C9281	C928	0.256150	0.663190	0.072300
H5371	H537	0.239500	0.647800	0.067700
C9291	C929	0.254390	0.679600	0.059430
C9301	C930	0.278110	0.700860	0.066690
H5381	H538	0.277600	0.712200	0.058200
C9311	C931	0.303250	0.706840	0.085990
H5391	H539	0.319800	0.722400	0.090600
C9321	C932	0.226570	0.671040	0.037690
C9331	C933	0.353750	0.486710	0.317940
C9341	C934	0.360360	0.465760	0.303120
C9351	C935	0.386410	0.467800	0.316750
H5401	H540	0.399700	0.482700	0.335400
C9361	C936	0.393280	0.448560	0.303660
H5411	H541	0.411100	0.450400	0.313300
C9371	C937	0.374000	0.426590	0.276430
C9381	C938	0.348440	0.424880	0.262460
H5421	H542	0.335300	0.410400	0.243500
C9391	C939	0.342000	0.444570	0.276290
H5431	H543	0.324400	0.443000	0.266600
C9401	C940	0.380180	0.405430	0.260030
C9411	C941	0.368870	0.393460	0.230870
H5441	H544	0.356100	0.398000	0.220900
H5451	H545	0.363700	0.346900	0.176600
C9421	C942	0.384080	0.408920	0.181960
H5461	H546	0.369000	0.411100	0.183100
C9431	C943	0.403620	0.429010	0.180690
C9441	C944	0.401020	0.452100	0.180040
C9451	C945	0.410280	0.463300	0.165580
H5471	H547	0.417600	0.454800	0.155200
C9461	C946	0.409290	0.486660	0.165630
H5481	H548	0.416600	0.494300	0.155900
C9471	C947	0.397740	0.499320	0.179780
C9481	C948	0.387750	0.488130	0.193480
H5491	H549	0.379500	0.495800	0.203100
C9491	C949	0.389690	0.464800	0.193030
H5501	H550	0.382400	0.457100	0.202700
C9501	C950	0.397040	0.524400	0.178280
O2011	O201	0.414570	0.196930	0.824100
O2021	O202	0.437690	0.244400	0.846670
O2031	O203	0.618950	0.176140	0.970890
O2041	O204	0.658690	0.196310	0.971000
O2051	O205	0.161740	0.028570	0.656850
O2061	O206	0.182410	0.028530	0.697280
O2071	O207	0.344200	0.195560	0.811620
O2081	O208	0.367990	0.242620	0.834490
C9511	C951	0.436360	0.221430	0.838570
C9521	C952	0.463850	0.221370	0.843500
C9531	C953	0.467370	0.198600	0.842930
H5511	H551	0.452100	0.182300	0.839000
C9541	C954	0.492290	0.199450	0.847980
H5521	H552	0.494000	0.183600	0.847400
C9551	C955	0.515430	0.223170	0.853960
C9561	C956	0.511170	0.244420	0.853370
H5531	H553	0.526000	0.260200	0.856000
C9571	C957	0.486740	0.244540	0.849260
H5541	H554	0.485500	0.260700	0.850400
C9581	C958	0.542850	0.223250	0.858740
C9591	C959	0.554920	0.214770	0.876750
H5551	H555	0.546100	0.208900	0.886400
C9601	C960	0.580010	0.214710	0.880820
C9611	C961	0.590610	0.222540	0.866230
H5561	H556	0.607400	0.222100	0.868700
C9621	C962	0.580000	0.231590	0.847230
C9631	C963	0.556410	0.231870	0.844220
H5571	H557	0.548300	0.238000	0.832100
C9641	C964	0.592430	0.206880	0.900770
C9651	C965	0.577850	0.190340	0.908530
H5581	H558	0.558100	0.183100	0.900400
C9661	C966	0.590890	0.183850	0.927700
H5591	H559	0.580100	0.171800	0.932300
C9671	C967	0.620170	0.194960	0.940570
C9681	C968	0.634170	0.211420	0.933310
H5601	H560	0.654000	0.219400	0.941800
C9691	C969	0.620850	0.217260	0.914010
H5611	H561	0.631800	0.229200	0.909400
C9701	C970	0.633350	0.188880	0.962310
C9711	C971	0.168770	0.035810	0.682060
C9721	C972	0.162640	0.057240	0.696880
C9731	C973	0.151050	0.069660	0.683250
H5621	H562	0.147300	0.064300	0.664600
C9741	C974	0.144900	0.089620	0.696340
H5631	H563	0.137100	0.097800	0.686700
C9751	C975	0.150160	0.097570	0.723570
C9761	C976	0.162420	0.085980	0.737540
H5641	H564	0.166900	0.091800	0.756500
C9771	C977	0.168280	0.065710	0.723710
H5651	H565	0.176400	0.057800	0.733400
C9781	C978	0.145400	0.120150	0.739970
C9791	C979	0.162590	0.138000	0.769130
H5661	H566	0.177100	0.135200	0.779100
H5671	H567	0.170300	0.187100	0.823400
C9801	C980	0.226960	0.202120	0.818040
H5681	H568	0.228000	0.185900	0.816900
C9811	C981	0.248320	0.222930	0.819310
C9821	C982	0.272060	0.220980	0.819960
C9831	C983	0.297720	0.244700	0.834420
H5691	H569	0.299600	0.262400	0.844800
C9841	C984	0.321030	0.243660	0.834370
H5701	H570	0.338400	0.260700	0.844100
C9851	C985	0.319540	0.217960	0.820220
C9861	C986	0.294650	0.194270	0.806520
H5711	H571	0.292700	0.176400	0.796900
C9871	C987	0.271770	0.196660	0.806970
H5721	H572	0.254400	0.179700	0.797300
C9881	C988	0.346120	0.218760	0.821720
O2091	O209	0.585430	0.409530	0.782360
O2101	O210	0.562310	0.408980	0.806710
O2111	O211	0.381050	0.351940	0.557190
O2121	O212	0.341310	0.312310	0.537620
O2131	O213	0.838260	0.495110	0.866830
O2141	O214	0.817590	0.514870	0.846120
O2151	O215	0.655800	0.467420	0.851360
O2161	O216	0.632010	0.466500	0.874630
C9891	C989	0.563640	0.402210	0.785070
C9901	C990	0.536150	0.379650	0.757520
C9911	C991	0.532630	0.375560	0.731230
H5731	H573	0.547900	0.386900	0.730200
C9921	C992	0.507710	0.355690	0.707160
H5741	H574	0.506000	0.353400	0.689600
C9931	C993	0.484570	0.338530	0.707740
C9941	C994	0.488830	0.342200	0.733250
H5751	H575	0.474000	0.330000	0.734200
C9951	C995	0.513260	0.362520	0.757800
H5761	H576	0.514500	0.364900	0.775200
C9961	C996	0.457150	0.315890	0.680400
C9971	C997	0.445080	0.321830	0.659850
H5771	H577	0.453900	0.340300	0.662800
C9981	C998	0.419990	0.300810	0.634700
C9991	C999	0.409390	0.275620	0.631930
H5781	H578	0.392600	0.261300	0.614700
C10001	C1000	0.420000	0.267230	0.651590
C10011	C1001	0.443590	0.287810	0.675460
H5791	H579	0.451700	0.283800	0.689700
C10021	C1002	0.407570	0.308340	0.614450
C10031	C1003	0.422150	0.330680	0.612490
H5801	H580	0.441900	0.342300	0.625000
C10041	C1004	0.409110	0.336810	0.592960
H5811	H581	0.419900	0.352200	0.591700
C10051	C1005	0.379830	0.320400	0.574790
C10061	C1006	0.365830	0.299140	0.577250
H5821	H582	0.346000	0.287800	0.565400
C10071	C1007	0.379150	0.293160	0.596410
H5831	H583	0.368200	0.277600	0.597400
C10081	C1008	0.366650	0.328960	0.555530
C10091	C1009	0.831230	0.513290	0.867040
C10101	C1010	0.837360	0.534240	0.894600
C10111	C1011	0.848950	0.532200	0.918610
H5841	H584	0.852700	0.517300	0.917000
C10121	C1012	0.855100	0.551440	0.944720
H5851	H585	0.862900	0.549600	0.960700
C10131	C1013	0.849840	0.573410	0.947410
C10141	C1014	0.837580	0.575120	0.923560
H5861	H586	0.833100	0.589600	0.924900
C10151	C1015	0.831720	0.555430	0.897430
H5871	H587	0.823600	0.557000	0.881400
C10161	C1016	0.854600	0.594570	0.974750
C10171	C1017	0.837410	0.606540	0.975410
H5881	H588	0.822900	0.602000	0.958100
H5891	H589	0.829700	0.653100	0.016800
C10181	C1018	0.773040	0.591080	0.975160
H5901	H590	0.772000	0.588900	0.957900
C10191	C1019	0.751680	0.570990	0.974610
C10201	C1020	0.727940	0.547900	0.948920
C10211	C1021	0.702280	0.536700	0.946980
H5911	H591	0.700400	0.545200	0.962800
C10221	C1022	0.678970	0.513340	0.922630
H5921	H592	0.661600	0.505700	0.922300
C10231	C1023	0.680460	0.500680	0.898420
C10241	C1024	0.705350	0.511870	0.899620
H5931	H593	0.707300	0.504200	0.883700
C10251	C1025	0.728230	0.535200	0.924890
H5941	H594	0.745600	0.542900	0.925300
C10261	C1026	0.653880	0.475600	0.872640
O2171	O217	0.627170	0.803070	0.217640
O2181	O218	0.602270	0.755600	0.193290
O2191	O219	0.794750	0.823860	0.442810
O2201	O220	0.774690	0.803690	0.462380
O2211	O221	0.628280	0.971430	0.133170
O2221	O222	0.668750	0.971470	0.153880
O2231	O223	0.616060	0.804440	0.148640
O2241	O224	0.591870	0.757380	0.125370
C10271	C1027	0.617140	0.778570	0.214930
C10281	C1028	0.622130	0.778630	0.242480
C10291	C1029	0.644330	0.801400	0.268770
H5951	H595	0.656700	0.817700	0.269800
C10301	C1030	0.648530	0.800550	0.292840
H5961	H596	0.663800	0.816400	0.310400
C10311	C1031	0.630790	0.776830	0.292260
C10321	C1032	0.608950	0.755580	0.266750
H5971	H597	0.595800	0.739800	0.265800
C10331	C1033	0.604720	0.755460	0.242200
H5981	H598	0.589700	0.739300	0.224800
C10341	C1034	0.635490	0.776750	0.319600
C10351	C1035	0.661980	0.785230	0.340150
H5991	H599	0.677500	0.791100	0.337200
C10361	C1036	0.666110	0.785290	0.365300
C10371	C1037	0.643690	0.777460	0.368070
H6001	H600	0.646600	0.777900	0.385300
C10381	C1038	0.615640	0.768410	0.348410
C10391	C1039	0.612350	0.768130	0.324540
H6011	H601	0.594100	0.762000	0.310300
C10401	C1040	0.693890	0.793120	0.385550
C10411	C1041	0.718190	0.809660	0.387510
H6021	H602	0.717300	0.816900	0.375000
C10421	C1042	0.743850	0.816150	0.407040
H6031	H603	0.760500	0.828200	0.408300
C10431	C1043	0.745610	0.805040	0.425210
C10441	C1044	0.721890	0.788580	0.422750
H6041	H604	0.722400	0.780600	0.434600
C10451	C1045	0.696750	0.782740	0.403590
H6051	H605	0.680200	0.770800	0.402600
C10461	C1046	0.773430	0.811120	0.444470
C10471	C1047	0.646250	0.964190	0.132960
C10481	C1048	0.639640	0.942760	0.105400
C10491	C1049	0.613590	0.930340	0.081390
H6061	H606	0.600300	0.935700	0.083000
C10501	C1050	0.606720	0.910380	0.055280
H6071	H607	0.588900	0.902200	0.039300
C10511	C1051	0.626000	0.902430	0.052590
C10521	C1052	0.651560	0.914020	0.076440
H6081	H608	0.664700	0.908200	0.075100
C10531	C1053	0.658000	0.934290	0.102570
H6091	H609	0.675600	0.942200	0.118600
C10541	C1054	0.619820	0.879850	0.025250
C10551	C1055	0.631130	0.862000	0.024590
H6101	H610	0.643900	0.864800	0.041900
H6111	H611	0.636300	0.812900	0.983200
C10561	C1056	0.615920	0.797880	0.024840
H6121	H612	0.631000	0.814100	0.042100
C10571	C1057	0.596380	0.777070	0.025390
C10581	C1058	0.598980	0.779020	0.051080
C10591	C1059	0.589720	0.755300	0.053020
H6131	H613	0.582400	0.737600	0.037200
C10601	C1060	0.590710	0.756340	0.077370
H6141	H614	0.583400	0.739300	0.077700
C10611	C1061	0.602260	0.782040	0.101580
C10621	C1062	0.612250	0.805730	0.100380
H6151	H615	0.620500	0.823600	0.116300
C10631	C1063	0.610310	0.803340	0.075110
H6161	H616	0.617600	0.820300	0.074700
C10641	C1064	0.602960	0.781240	0.127360
O2251	O225	0.175900	0.372830	0.590470
O2261	O226	0.153330	0.397730	0.591020
O2271	O227	0.029110	0.205250	0.648060
O2281	O228	0.029000	0.225310	0.687690
O2291	O229	0.343150	0.371720	0.504890
O2301	O230	0.302720	0.331250	0.485130
O2311	O231	0.188380	0.383940	0.532580
O2321	O232	0.165510	0.408130	0.533500
C10651	C1065	0.161430	0.382860	0.597790
C10661	C1066	0.156500	0.377870	0.620350
C10671	C1067	0.157070	0.355670	0.624440
H6171	H617	0.161000	0.343300	0.613100
C10681	C1068	0.152020	0.351470	0.644310
H6181	H618	0.152600	0.336200	0.646600
C10691	C1069	0.146040	0.369210	0.661470
C10701	C1070	0.146630	0.391050	0.657800
H6191	H619	0.144000	0.404200	0.670000
C10711	C1071	0.150740	0.395280	0.637480
H6201	H620	0.149600	0.410300	0.635100
C10721	C1072	0.141260	0.364510	0.684110
C10731	C1073	0.123250	0.338020	0.678170
H6211	H621	0.113600	0.322500	0.659700
C10741	C1074	0.119180	0.333890	0.699190
C10751	C1075	0.133770	0.356310	0.724380
H6221	H622	0.131300	0.353400	0.738700
C10761	C1076	0.152770	0.384360	0.732770
C10771	C1077	0.155780	0.387650	0.712190
H6231	H623	0.167900	0.405900	0.716200
C10781	C1078	0.099230	0.306110	0.691660
C10791	C1079	0.091470	0.281810	0.669320
H6241	H624	0.099600	0.282700	0.657700
C10801	C1080	0.072300	0.256150	0.663190
H6251	H625	0.067700	0.239500	0.647800
C10811	C1081	0.059430	0.254390	0.679600
C10821	C1082	0.066690	0.278110	0.700860
H6261	H626	0.058200	0.277600	0.712200
C10831	C1083	0.085990	0.303250	0.706840
H6271	H627	0.090600	0.319800	0.722400
C10841	C1084	0.037690	0.226570	0.671040
C10851	C1085	0.317940	0.353750	0.486710
C10861	C1086	0.303120	0.360360	0.465760
C10871	C1087	0.316750	0.386410	0.467800
H6281	H628	0.335400	0.399700	0.482700
C10881	C1088	0.303660	0.393280	0.448560
H6291	H629	0.313300	0.411100	0.450400
C10891	C1089	0.276430	0.374000	0.426590
C10901	C1090	0.262460	0.348440	0.424880
H6301	H630	0.243500	0.335300	0.410400
C10911	C1091	0.276290	0.342000	0.444570
H6311	H631	0.266600	0.324400	0.443000
C10921	C1092	0.260030	0.380180	0.405430
C10931	C1093	0.230870	0.368870	0.393460
H6321	H632	0.220900	0.356100	0.398000
H6331	H633	0.176600	0.363700	0.346900
C10941	C1094	0.181960	0.384080	0.408920
H6341	H634	0.183100	0.369000	0.411100
C10951	C1095	0.180690	0.403620	0.429010
C10961	C1096	0.180040	0.401020	0.452100
C10971	C1097	0.165580	0.410280	0.463300
H6351	H635	0.155200	0.417600	0.454800
C10981	C1098	0.165630	0.409290	0.486660
H6361	H636	0.155900	0.416600	0.494300
C10991	C1099	0.179780	0.397740	0.499320
C11001	C1100	0.193480	0.387750	0.488130
H6371	H637	0.203100	0.379500	0.495800
C11011	C1101	0.193030	0.389690	0.464800
H6381	H638	0.202700	0.382400	0.457100
C11021	C1102	0.178280	0.397040	0.524400
O2331	O233	0.824100	0.414570	0.196930
O2341	O234	0.846670	0.437690	0.244400
O2351	O235	0.970890	0.618950	0.176140
O2361	O236	0.971000	0.658690	0.196310
O2371	O237	0.656850	0.161740	0.028570
O2381	O238	0.697280	0.182410	0.028530
O2391	O239	0.811620	0.344200	0.195560
O2401	O240	0.834490	0.367990	0.242620
C11031	C1103	0.838570	0.436360	0.221430
C11041	C1104	0.843500	0.463850	0.221370
C11051	C1105	0.842930	0.467370	0.198600
H6391	H639	0.839000	0.452100	0.182300
C11061	C1106	0.847980	0.492290	0.199450
H6401	H640	0.847400	0.494000	0.183600
C11071	C1107	0.853960	0.515430	0.223170
C11081	C1108	0.853370	0.511170	0.244420
H6411	H641	0.856000	0.526000	0.260200
C11091	C1109	0.849260	0.486740	0.244540
H6421	H642	0.850400	0.485500	0.260700
C11101	C1110	0.858740	0.542850	0.223250
C11111	C1111	0.876750	0.554920	0.214770
H6431	H643	0.886400	0.546100	0.208900
C11121	C1112	0.880820	0.580010	0.214710
C11131	C1113	0.866230	0.590610	0.222540
H6441	H644	0.868700	0.607400	0.222100
C11141	C1114	0.847230	0.580000	0.231590
C11151	C1115	0.844220	0.556410	0.231870
H6451	H645	0.832100	0.548300	0.238000
C11161	C1116	0.900770	0.592430	0.206880
C11171	C1117	0.908530	0.577850	0.190340
H6461	H646	0.900400	0.558100	0.183100
C11181	C1118	0.927700	0.590890	0.183850
H6471	H647	0.932300	0.580100	0.171800
C11191	C1119	0.940570	0.620170	0.194960
C11201	C1120	0.933310	0.634170	0.211420
H6481	H648	0.941800	0.654000	0.219400
C11211	C1121	0.914010	0.620850	0.217260
H6491	H649	0.909400	0.631800	0.229200
C11221	C1122	0.962310	0.633350	0.188880
C11231	C1123	0.682060	0.168770	0.035810
C11241	C1124	0.696880	0.162640	0.057240
C11251	C1125	0.683250	0.151050	0.069660
H6501	H650	0.664600	0.147300	0.064300
C11261	C1126	0.696340	0.144900	0.089620
H6511	H651	0.686700	0.137100	0.097800
C11271	C1127	0.723570	0.150160	0.097570
C11281	C1128	0.737540	0.162420	0.085980
H6521	H652	0.756500	0.166900	0.091800
C11291	C1129	0.723710	0.168280	0.065710
H6531	H653	0.733400	0.176400	0.057800
C11301	C1130	0.739970	0.145400	0.120150
C11311	C1131	0.769130	0.162590	0.138000
H6541	H654	0.779100	0.177100	0.135200
H6551	H655	0.823400	0.170300	0.187100
C11321	C1132	0.818040	0.226960	0.202120
H6561	H656	0.816900	0.228000	0.185900
C11331	C1133	0.819310	0.248320	0.222930
C11341	C1134	0.819960	0.272060	0.220980
C11351	C1135	0.834420	0.297720	0.244700
H6571	H657	0.844800	0.299600	0.262400
C11361	C1136	0.834370	0.321030	0.243660
H6581	H658	0.844100	0.338400	0.260700
C11371	C1137	0.820220	0.319540	0.217960
C11381	C1138	0.806520	0.294650	0.194270
H6591	H659	0.796900	0.292700	0.176400
C11391	C1139	0.806970	0.271770	0.196660
H6601	H660	0.797300	0.254400	0.179700
C11401	C1140	0.821720	0.346120	0.218760
O2411	O241	0.782360	0.585430	0.409530
O2421	O242	0.806710	0.562310	0.408980
O2431	O243	0.557190	0.381050	0.351940
O2441	O244	0.537620	0.341310	0.312310
O2451	O245	0.866830	0.838260	0.495110
O2461	O246	0.846120	0.817590	0.514870
O2471	O247	0.851360	0.655800	0.467420
O2481	O248	0.874630	0.632010	0.466500
C11411	C1141	0.785070	0.563640	0.402210
C11421	C1142	0.757520	0.536150	0.379650
C11431	C1143	0.731230	0.532630	0.375560
H6611	H661	0.730200	0.547900	0.386900
C11441	C1144	0.707160	0.507710	0.355690
H6621	H662	0.689600	0.506000	0.353400
C11451	C1145	0.707740	0.484570	0.338530
C11461	C1146	0.733250	0.488830	0.342200
H6631	H663	0.734200	0.474000	0.330000
C11471	C1147	0.757800	0.513260	0.362520
H6641	H664	0.775200	0.514500	0.364900
C11481	C1148	0.680400	0.457150	0.315890
C11491	C1149	0.659850	0.445080	0.321830
H6651	H665	0.662800	0.453900	0.340300
C11501	C1150	0.634700	0.419990	0.300810
C11511	C1151	0.631930	0.409390	0.275620
H6661	H666	0.614700	0.392600	0.261300
C11521	C1152	0.651590	0.420000	0.267230
C11531	C1153	0.675460	0.443590	0.287810
H6671	H667	0.689700	0.451700	0.283800
C11541	C1154	0.614450	0.407570	0.308340
C11551	C1155	0.612490	0.422150	0.330680
H6681	H668	0.625000	0.441900	0.342300
C11561	C1156	0.592960	0.409110	0.336810
H6691	H669	0.591700	0.419900	0.352200
C11571	C1157	0.574790	0.379830	0.320400
C11581	C1158	0.577250	0.365830	0.299140
H6701	H670	0.565400	0.346000	0.287800
C11591	C1159	0.596410	0.379150	0.293160
H6711	H671	0.597400	0.368200	0.277600
C11601	C1160	0.555530	0.366650	0.328960
C11611	C1161	0.867040	0.831230	0.513290
C11621	C1162	0.894600	0.837360	0.534240
C11631	C1163	0.918610	0.848950	0.532200
H6721	H672	0.917000	0.852700	0.517300
C11641	C1164	0.944720	0.855100	0.551440
H6731	H673	0.960700	0.862900	0.549600
C11651	C1165	0.947410	0.849840	0.573410
C11661	C1166	0.923560	0.837580	0.575120
H6741	H674	0.924900	0.833100	0.589600
C11671	C1167	0.897430	0.831720	0.555430
H6751	H675	0.881400	0.823600	0.557000
C11681	C1168	0.974750	0.854600	0.594570
C11691	C1169	0.975410	0.837410	0.606540
H6761	H676	0.958100	0.822900	0.602000
H6771	H677	0.016800	0.829700	0.653100
C11701	C1170	0.975160	0.773040	0.591080
H6781	H678	0.957900	0.772000	0.588900
C11711	C1171	0.974610	0.751680	0.570990
C11721	C1172	0.948920	0.727940	0.547900
C11731	C1173	0.946980	0.702280	0.536700
H6791	H679	0.962800	0.700400	0.545200
C11741	C1174	0.922630	0.678970	0.513340
H6801	H680	0.922300	0.661600	0.505700
C11751	C1175	0.898420	0.680460	0.500680
C11761	C1176	0.899620	0.705350	0.511870
H6811	H681	0.883700	0.707300	0.504200
C11771	C1177	0.924890	0.728230	0.535200
H6821	H682	0.925300	0.745600	0.542900
C11781	C1178	0.872640	0.653880	0.475600
O2491	O249	0.217640	0.627170	0.803070
O2501	O250	0.193290	0.602270	0.755600
O2511	O251	0.442810	0.794750	0.823860
O2521	O252	0.462380	0.774690	0.803690
O2531	O253	0.133170	0.628280	0.971430
O2541	O254	0.153880	0.668750	0.971470
O2551	O255	0.148640	0.616060	0.804440
O2561	O256	0.125370	0.591870	0.757380
C11791	C1179	0.214930	0.617140	0.778570
C11801	C1180	0.242480	0.622130	0.778630
C11811	C1181	0.268770	0.644330	0.801400
H6831	H683	0.269800	0.656700	0.817700
C11821	C1182	0.292840	0.648530	0.800550
H6841	H684	0.310400	0.663800	0.816400
C11831	C1183	0.292260	0.630790	0.776830
C11841	C1184	0.266750	0.608950	0.755580
H6851	H685	0.265800	0.595800	0.739800
C11851	C1185	0.242200	0.604720	0.755460
H6861	H686	0.224800	0.589700	0.739300
C11861	C1186	0.319600	0.635490	0.776750
C11871	C1187	0.340150	0.661980	0.785230
H6871	H687	0.337200	0.677500	0.791100
C11881	C1188	0.365300	0.666110	0.785290
C11891	C1189	0.368070	0.643690	0.777460
H6881	H688	0.385300	0.646600	0.777900
C11901	C1190	0.348410	0.615640	0.768410
C11911	C1191	0.324540	0.612350	0.768130
H6891	H689	0.310300	0.594100	0.762000
C11921	C1192	0.385550	0.693890	0.793120
C11931	C1193	0.387510	0.718190	0.809660
H6901	H690	0.375000	0.717300	0.816900
C11941	C1194	0.407040	0.743850	0.816150
H6911	H691	0.408300	0.760500	0.828200
C11951	C1195	0.425210	0.745610	0.805040
C11961	C1196	0.422750	0.721890	0.788580
H6921	H692	0.434600	0.722400	0.780600
C11971	C1197	0.403590	0.696750	0.782740
H6931	H693	0.402600	0.680200	0.770800
C11981	C1198	0.444470	0.773430	0.811120
C11991	C1199	0.132960	0.646250	0.964190
C12001	C1200	0.105400	0.639640	0.942760
C12011	C1201	0.081390	0.613590	0.930340
H6941	H694	0.083000	0.600300	0.935700
C12021	C1202	0.055280	0.606720	0.910380
H6951	H695	0.039300	0.588900	0.902200
C12031	C1203	0.052590	0.626000	0.902430
C12041	C1204	0.076440	0.651560	0.914020
H6961	H696	0.075100	0.664700	0.908200
C12051	C1205	0.102570	0.658000	0.934290
H6971	H697	0.118600	0.675600	0.942200
C12061	C1206	0.025250	0.619820	0.879850
C12071	C1207	0.024590	0.631130	0.862000
H6981	H698	0.041900	0.643900	0.864800
H6991	H699	0.983200	0.636300	0.812900
C12081	C1208	0.024840	0.615920	0.797880
H7001	H700	0.042100	0.631000	0.814100
C12091	C1209	0.025390	0.596380	0.777070
C12101	C1210	0.051080	0.598980	0.779020
C12111	C1211	0.053020	0.589720	0.755300
H7011	H701	0.037200	0.582400	0.737600
C12121	C1212	0.077370	0.590710	0.756340
H7021	H702	0.077700	0.583400	0.739300
C12131	C1213	0.101580	0.602260	0.782040
C12141	C1214	0.100380	0.612250	0.805730
H7031	H703	0.116300	0.620500	0.823600
C12151	C1215	0.075110	0.610310	0.803340
H7041	H704	0.074700	0.617600	0.820300
C12161	C1216	0.127360	0.602960	0.781240
O2571	O257	0.590470	0.175900	0.372830
O2581	O258	0.591020	0.153330	0.397730
O2591	O259	0.648060	0.029110	0.205250
O2601	O260	0.687690	0.029000	0.225310
O2611	O261	0.504890	0.343150	0.371720
O2621	O262	0.485130	0.302720	0.331250
O2631	O263	0.532580	0.188380	0.383940
O2641	O264	0.533500	0.165510	0.408130
C12171	C1217	0.597790	0.161430	0.382860
C12181	C1218	0.620350	0.156500	0.377870
C12191	C1219	0.624440	0.157070	0.355670
H7051	H705	0.613100	0.161000	0.343300
C12201	C1220	0.644310	0.152020	0.351470
H7061	H706	0.646600	0.152600	0.336200
C12211	C1221	0.661470	0.146040	0.369210
C12221	C1222	0.657800	0.146630	0.391050
H7071	H707	0.670000	0.144000	0.404200
C12231	C1223	0.637480	0.150740	0.395280
H7081	H708	0.635100	0.149600	0.410300
C12241	C1224	0.684110	0.141260	0.364510
C12251	C1225	0.678170	0.123250	0.338020
H7091	H709	0.659700	0.113600	0.322500
C12261	C1226	0.699190	0.119180	0.333890
C12271	C1227	0.724380	0.133770	0.356310
H7101	H710	0.738700	0.131300	0.353400
C12281	C1228	0.732770	0.152770	0.384360
C12291	C1229	0.712190	0.155780	0.387650
H7111	H711	0.716200	0.167900	0.405900
C12301	C1230	0.691660	0.099230	0.306110
C12311	C1231	0.669320	0.091470	0.281810
H7121	H712	0.657700	0.099600	0.282700
C12321	C1232	0.663190	0.072300	0.256150
H7131	H713	0.647800	0.067700	0.239500
C12331	C1233	0.679600	0.059430	0.254390
C12341	C1234	0.700860	0.066690	0.278110
H7141	H714	0.712200	0.058200	0.277600
C12351	C1235	0.706840	0.085990	0.303250
H7151	H715	0.722400	0.090600	0.319800
C12361	C1236	0.671040	0.037690	0.226570
C12371	C1237	0.486710	0.317940	0.353750
C12381	C1238	0.465760	0.303120	0.360360
C12391	C1239	0.467800	0.316750	0.386410
H7161	H716	0.482700	0.335400	0.399700
C12401	C1240	0.448560	0.303660	0.393280
H7171	H717	0.450400	0.313300	0.411100
C12411	C1241	0.426590	0.276430	0.374000
C12421	C1242	0.424880	0.262460	0.348440
H7181	H718	0.410400	0.243500	0.335300
C12431	C1243	0.444570	0.276290	0.342000
H7191	H719	0.443000	0.266600	0.324400
C12441	C1244	0.405430	0.260030	0.380180
C12451	C1245	0.393460	0.230870	0.368870
H7201	H720	0.398000	0.220900	0.356100
H7211	H721	0.346900	0.176600	0.363700
C12461	C1246	0.408920	0.181960	0.384080
H7221	H722	0.411100	0.183100	0.369000
C12471	C1247	0.429010	0.180690	0.403620
C12481	C1248	0.452100	0.180040	0.401020
C12491	C1249	0.463300	0.165580	0.410280
H7231	H723	0.454800	0.155200	0.417600
C12501	C1250	0.486660	0.165630	0.409290
H7241	H724	0.494300	0.155900	0.416600
C12511	C1251	0.499320	0.179780	0.397740
C12521	C1252	0.488130	0.193480	0.387750
H7251	H725	0.495800	0.203100	0.379500
C12531	C1253	0.464800	0.193030	0.389690
H7261	H726	0.457100	0.202700	0.382400
C12541	C1254	0.524400	0.178280	0.397040
O2651	O265	0.196930	0.824100	0.414570
O2661	O266	0.244400	0.846670	0.437690
O2671	O267	0.176140	0.970890	0.618950
O2681	O268	0.196310	0.971000	0.658690
O2691	O269	0.028570	0.656850	0.161740
O2701	O270	0.028530	0.697280	0.182410
O2711	O271	0.195560	0.811620	0.344200
O2721	O272	0.242620	0.834490	0.367990
C12551	C1255	0.221430	0.838570	0.436360
C12561	C1256	0.221370	0.843500	0.463850
C12571	C1257	0.198600	0.842930	0.467370
H7271	H727	0.182300	0.839000	0.452100
C12581	C1258	0.199450	0.847980	0.492290
H7281	H728	0.183600	0.847400	0.494000
C12591	C1259	0.223170	0.853960	0.515430
C12601	C1260	0.244420	0.853370	0.511170
H7291	H729	0.260200	0.856000	0.526000
C12611	C1261	0.244540	0.849260	0.486740
H7301	H730	0.260700	0.850400	0.485500
C12621	C1262	0.223250	0.858740	0.542850
C12631	C1263	0.214770	0.876750	0.554920
H7311	H731	0.208900	0.886400	0.546100
C12641	C1264	0.214710	0.880820	0.580010
C12651	C1265	0.222540	0.866230	0.590610
H7321	H732	0.222100	0.868700	0.607400
C12661	C1266	0.231590	0.847230	0.580000
C12671	C1267	0.231870	0.844220	0.556410
H7331	H733	0.238000	0.832100	0.548300
C12681	C1268	0.206880	0.900770	0.592430
C12691	C1269	0.190340	0.908530	0.577850
H7341	H734	0.183100	0.900400	0.558100
C12701	C1270	0.183850	0.927700	0.590890
H7351	H735	0.171800	0.932300	0.580100
C12711	C1271	0.194960	0.940570	0.620170
C12721	C1272	0.211420	0.933310	0.634170
H7361	H736	0.219400	0.941800	0.654000
C12731	C1273	0.217260	0.914010	0.620850
H7371	H737	0.229200	0.909400	0.631800
C12741	C1274	0.188880	0.962310	0.633350
C12751	C1275	0.035810	0.682060	0.168770
C12761	C1276	0.057240	0.696880	0.162640
C12771	C1277	0.069660	0.683250	0.151050
H7381	H738	0.064300	0.664600	0.147300
C12781	C1278	0.089620	0.696340	0.144900
H7391	H739	0.097800	0.686700	0.137100
C12791	C1279	0.097570	0.723570	0.150160
C12801	C1280	0.085980	0.737540	0.162420
H7401	H740	0.091800	0.756500	0.166900
C12811	C1281	0.065710	0.723710	0.168280
H7411	H741	0.057800	0.733400	0.176400
C12821	C1282	0.120150	0.739970	0.145400
C12831	C1283	0.138000	0.769130	0.162590
H7421	H742	0.135200	0.779100	0.177100
H7431	H743	0.187100	0.823400	0.170300
C12841	C1284	0.202120	0.818040	0.226960
H7441	H744	0.185900	0.816900	0.228000
C12851	C1285	0.222930	0.819310	0.248320
C12861	C1286	0.220980	0.819960	0.272060
C12871	C1287	0.244700	0.834420	0.297720
H7451	H745	0.262400	0.844800	0.299600
C12881	C1288	0.243660	0.834370	0.321030
H7461	H746	0.260700	0.844100	0.338400
C12891	C1289	0.217960	0.820220	0.319540
C12901	C1290	0.194270	0.806520	0.294650
H7471	H747	0.176400	0.796900	0.292700
C12911	C1291	0.196660	0.806970	0.271770
H7481	H748	0.179700	0.797300	0.254400
C12921	C1292	0.218760	0.821720	0.346120
O2731	O273	0.409530	0.782360	0.585430
O2741	O274	0.408980	0.806710	0.562310
O2751	O275	0.351940	0.557190	0.381050
O2761	O276	0.312310	0.537620	0.341310
O2771	O277	0.495110	0.866830	0.838260
O2781	O278	0.514870	0.846120	0.817590
O2791	O279	0.467420	0.851360	0.655800
O2801	O280	0.466500	0.874630	0.632010
C12931	C1293	0.402210	0.785070	0.563640
C12941	C1294	0.379650	0.757520	0.536150
C12951	C1295	0.375560	0.731230	0.532630
H7491	H749	0.386900	0.730200	0.547900
C12961	C1296	0.355690	0.707160	0.507710
H7501	H750	0.353400	0.689600	0.506000
C12971	C1297	0.338530	0.707740	0.484570
C12981	C1298	0.342200	0.733250	0.488830
H7511	H751	0.330000	0.734200	0.474000
C12991	C1299	0.362520	0.757800	0.513260
H7521	H752	0.364900	0.775200	0.514500
C13001	C1300	0.315890	0.680400	0.457150
C13011	C1301	0.321830	0.659850	0.445080
H7531	H753	0.340300	0.662800	0.453900
C13021	C1302	0.300810	0.634700	0.419990
C13031	C1303	0.275620	0.631930	0.409390
H7541	H754	0.261300	0.614700	0.392600
C13041	C1304	0.267230	0.651590	0.420000
C13051	C1305	0.287810	0.675460	0.443590
H7551	H755	0.283800	0.689700	0.451700
C13061	C1306	0.308340	0.614450	0.407570
C13071	C1307	0.330680	0.612490	0.422150
H7561	H756	0.342300	0.625000	0.441900
C13081	C1308	0.336810	0.592960	0.409110
H7571	H757	0.352200	0.591700	0.419900
C13091	C1309	0.320400	0.574790	0.379830
C13101	C1310	0.299140	0.577250	0.365830
H7581	H758	0.287800	0.565400	0.346000
C13111	C1311	0.293160	0.596410	0.379150
H7591	H759	0.277600	0.597400	0.368200
C13121	C1312	0.328960	0.555530	0.366650
C13131	C1313	0.513290	0.867040	0.831230
C13141	C1314	0.534240	0.894600	0.837360
C13151	C1315	0.532200	0.918610	0.848950
H7601	H760	0.517300	0.917000	0.852700
C13161	C1316	0.551440	0.944720	0.855100
H7611	H761	0.549600	0.960700	0.862900
C13171	C1317	0.573410	0.947410	0.849840
C13181	C1318	0.575120	0.923560	0.837580
H7621	H762	0.589600	0.924900	0.833100
C13191	C1319	0.555430	0.897430	0.831720
H7631	H763	0.557000	0.881400	0.823600
C13201	C1320	0.594570	0.974750	0.854600
C13211	C1321	0.606540	0.975410	0.837410
H7641	H764	0.602000	0.958100	0.822900
H7651	H765	0.653100	0.016800	0.829700
C13221	C1322	0.591080	0.975160	0.773040
H7661	H766	0.588900	0.957900	0.772000
C13231	C1323	0.570990	0.974610	0.751680
C13241	C1324	0.547900	0.948920	0.727940
C13251	C1325	0.536700	0.946980	0.702280
H7671	H767	0.545200	0.962800	0.700400
C13261	C1326	0.513340	0.922630	0.678970
H7681	H768	0.505700	0.922300	0.661600
C13271	C1327	0.500680	0.898420	0.680460
C13281	C1328	0.511870	0.899620	0.705350
H7691	H769	0.504200	0.883700	0.707300
C13291	C1329	0.535200	0.924890	0.728230
H7701	H770	0.542900	0.925300	0.745600
C13301	C1330	0.475600	0.872640	0.653880
O2811	O281	0.803070	0.217640	0.627170
O2821	O282	0.755600	0.193290	0.602270
O2831	O283	0.823860	0.442810	0.794750
O2841	O284	0.803690	0.462380	0.774690
O2851	O285	0.971430	0.133170	0.628280
O2861	O286	0.971470	0.153880	0.668750
O2871	O287	0.804440	0.148640	0.616060
O2881	O288	0.757380	0.125370	0.591870
C13311	C1331	0.778570	0.214930	0.617140
C13321	C1332	0.778630	0.242480	0.622130
C13331	C1333	0.801400	0.268770	0.644330
H7711	H771	0.817700	0.269800	0.656700
C13341	C1334	0.800550	0.292840	0.648530
H7721	H772	0.816400	0.310400	0.663800
C13351	C1335	0.776830	0.292260	0.630790
C13361	C1336	0.755580	0.266750	0.608950
H7731	H773	0.739800	0.265800	0.595800
C13371	C1337	0.755460	0.242200	0.604720
H7741	H774	0.739300	0.224800	0.589700
C13381	C1338	0.776750	0.319600	0.635490
C13391	C1339	0.785230	0.340150	0.661980
H7751	H775	0.791100	0.337200	0.677500
C13401	C1340	0.785290	0.365300	0.666110
C13411	C1341	0.777460	0.368070	0.643690
H7761	H776	0.777900	0.385300	0.646600
C13421	C1342	0.768410	0.348410	0.615640
C13431	C1343	0.768130	0.324540	0.612350
H7771	H777	0.762000	0.310300	0.594100
C13441	C1344	0.793120	0.385550	0.693890
C13451	C1345	0.809660	0.387510	0.718190
H7781	H778	0.816900	0.375000	0.717300
C13461	C1346	0.816150	0.407040	0.743850
H7791	H779	0.828200	0.408300	0.760500
C13471	C1347	0.805040	0.425210	0.745610
C13481	C1348	0.788580	0.422750	0.721890
H7801	H780	0.780600	0.434600	0.722400
C13491	C1349	0.782740	0.403590	0.696750
H7811	H781	0.770800	0.402600	0.680200
C13501	C1350	0.811120	0.444470	0.773430
C13511	C1351	0.964190	0.132960	0.646250
C13521	C1352	0.942760	0.105400	0.639640
C13531	C1353	0.930340	0.081390	0.613590
H7821	H782	0.935700	0.083000	0.600300
C13541	C1354	0.910380	0.055280	0.606720
H7831	H783	0.902200	0.039300	0.588900
C13551	C1355	0.902430	0.052590	0.626000
C13561	C1356	0.914020	0.076440	0.651560
H7841	H784	0.908200	0.075100	0.664700
C13571	C1357	0.934290	0.102570	0.658000
H7851	H785	0.942200	0.118600	0.675600
C13581	C1358	0.879850	0.025250	0.619820
C13591	C1359	0.862000	0.024590	0.631130
H7861	H786	0.864800	0.041900	0.643900
H7871	H787	0.812900	0.983200	0.636300
C13601	C1360	0.797880	0.024840	0.615920
H7881	H788	0.814100	0.042100	0.631000
C13611	C1361	0.777070	0.025390	0.596380
C13621	C1362	0.779020	0.051080	0.598980
C13631	C1363	0.755300	0.053020	0.589720
H7891	H789	0.737600	0.037200	0.582400
C13641	C1364	0.756340	0.077370	0.590710
H7901	H790	0.739300	0.077700	0.583400
C13651	C1365	0.782040	0.101580	0.602260
C13661	C1366	0.805730	0.100380	0.612250
H7911	H791	0.823600	0.116300	0.620500
C13671	C1367	0.803340	0.075110	0.610310
H7921	H792	0.820300	0.074700	0.617600
C13681	C1368	0.781240	0.127360	0.602960
O2891	O289	0.803070	0.585430	0.175900
O2901	O290	0.755600	0.562310	0.153330
O2911	O291	0.823860	0.381050	0.029110
O2921	O292	0.803690	0.341310	0.029000
O2931	O293	0.971430	0.838260	0.343150
O2941	O294	0.971470	0.817590	0.302720
O2951	O295	0.804440	0.655800	0.188380
O2961	O296	0.757380	0.632010	0.165510
C13691	C1369	0.778570	0.563640	0.161430
C13701	C1370	0.778630	0.536150	0.156500
C13711	C1371	0.801400	0.532630	0.157070
H7931	H793	0.817700	0.547900	0.161000
C13721	C1372	0.800550	0.507710	0.152020
H7941	H794	0.816400	0.506000	0.152600
C13731	C1373	0.776830	0.484570	0.146040
C13741	C1374	0.755580	0.488830	0.146630
H7951	H795	0.739800	0.474000	0.144000
C13751	C1375	0.755460	0.513260	0.150740
H7961	H796	0.739300	0.514500	0.149600
C13761	C1376	0.776750	0.457150	0.141260
C13771	C1377	0.785230	0.445080	0.123250
H7971	H797	0.791100	0.453900	0.113600
C13781	C1378	0.785290	0.419990	0.119180
C13791	C1379	0.777460	0.409390	0.133770
H7981	H798	0.777900	0.392600	0.131300
C13801	C1380	0.768410	0.420000	0.152770
C13811	C1381	0.768130	0.443590	0.155780
H7991	H799	0.762000	0.451700	0.167900
C13821	C1382	0.793120	0.407570	0.099230
C13831	C1383	0.809660	0.422150	0.091470
H8001	H800	0.816900	0.441900	0.099600
C13841	C1384	0.816150	0.409110	0.072300
H8011	H801	0.828200	0.419900	0.067700
C13851	C1385	0.805040	0.379830	0.059430
C13861	C1386	0.788580	0.365830	0.066690
H8021	H802	0.780600	0.346000	0.058200
C13871	C1387	0.782740	0.379150	0.085990
H8031	H803	0.770800	0.368200	0.090600
C13881	C1388	0.811120	0.366650	0.037690
C13891	C1389	0.964190	0.831230	0.317940
C13901	C1390	0.942760	0.837360	0.303120
C13911	C1391	0.930340	0.848950	0.316750
H8041	H804	0.935700	0.852700	0.335400
C13921	C1392	0.910380	0.855100	0.303660
H8051	H805	0.902200	0.862900	0.313300
C13931	C1393	0.902430	0.849840	0.276430
C13941	C1394	0.914020	0.837580	0.262460
H8061	H806	0.908200	0.833100	0.243500
C13951	C1395	0.934290	0.831720	0.276290
H8071	H807	0.942200	0.823600	0.266600
C13961	C1396	0.879850	0.854600	0.260030
C13971	C1397	0.862000	0.837410	0.230870
H8081	H808	0.864800	0.822900	0.220900
H8091	H809	0.812900	0.829700	0.176600
C13981	C1398	0.797880	0.773040	0.181960
H8101	H810	0.814100	0.772000	0.183100
C13991	C1399	0.777070	0.751680	0.180690
C14001	C1400	0.779020	0.727940	0.180040
C14011	C1401	0.755300	0.702280	0.165580
H8111	H811	0.737600	0.700400	0.155200
C14021	C1402	0.756340	0.678970	0.165630
H8121	H812	0.739300	0.661600	0.155900
C14031	C1403	0.782040	0.680460	0.179780
C14041	C1404	0.805730	0.705350	0.193480
H8131	H813	0.823600	0.707300	0.203100
C14051	C1405	0.803340	0.728230	0.193030
H8141	H814	0.820300	0.745600	0.202700
C14061	C1406	0.781240	0.653880	0.178280
O2971	O297	0.409530	0.627170	0.824100
O2981	O298	0.408980	0.602270	0.846670
O2991	O299	0.351940	0.794750	0.970890
O3001	O300	0.312310	0.774690	0.971000
O3011	O301	0.495110	0.628280	0.656850
O3021	O302	0.514870	0.668750	0.697280
O3031	O303	0.467420	0.616060	0.811620
O3041	O304	0.466500	0.591870	0.834490
C14071	C1407	0.402210	0.617140	0.838570
C14081	C1408	0.379650	0.622130	0.843500
C14091	C1409	0.375560	0.644330	0.842930
H8151	H815	0.386900	0.656700	0.839000
C14101	C1410	0.355690	0.648530	0.847980
H8161	H816	0.353400	0.663800	0.847400
C14111	C1411	0.338530	0.630790	0.853960
C14121	C1412	0.342200	0.608950	0.853370
H8171	H817	0.330000	0.595800	0.856000
C14131	C1413	0.362520	0.604720	0.849260
H8181	H818	0.364900	0.589700	0.850400
C14141	C1414	0.315890	0.635490	0.858740
C14151	C1415	0.321830	0.661980	0.876750
H8191	H819	0.340300	0.677500	0.886400
C14161	C1416	0.300810	0.666110	0.880820
C14171	C1417	0.275620	0.643690	0.866230
H8201	H820	0.261300	0.646600	0.868700
C14181	C1418	0.267230	0.615640	0.847230
C14191	C1419	0.287810	0.612350	0.844220
H8211	H821	0.283800	0.594100	0.832100
C14201	C1420	0.308340	0.693890	0.900770
C14211	C1421	0.330680	0.718190	0.908530
H8221	H822	0.342300	0.717300	0.900400
C14221	C1422	0.336810	0.743850	0.927700
H8231	H823	0.352200	0.760500	0.932300
C14231	C1423	0.320400	0.745610	0.940570
C14241	C1424	0.299140	0.721890	0.933310
H8241	H824	0.287800	0.722400	0.941800
C14251	C1425	0.293160	0.696750	0.914010
H8251	H825	0.277600	0.680200	0.909400
C14261	C1426	0.328960	0.773430	0.962310
C14271	C1427	0.513290	0.646250	0.682060
C14281	C1428	0.534240	0.639640	0.696880
C14291	C1429	0.532200	0.613590	0.683250
H8261	H826	0.517300	0.600300	0.664600
C14301	C1430	0.551440	0.606720	0.696340
H8271	H827	0.549600	0.588900	0.686700
C14311	C1431	0.573410	0.626000	0.723570
C14321	C1432	0.575120	0.651560	0.737540
H8281	H828	0.589600	0.664700	0.756500
C14331	C1433	0.555430	0.658000	0.723710
H8291	H829	0.557000	0.675600	0.733400
C14341	C1434	0.594570	0.619820	0.739970
C14351	C1435	0.606540	0.631130	0.769130
H8301	H830	0.602000	0.643900	0.779100
H8311	H831	0.653100	0.636300	0.823400
C14361	C1436	0.591080	0.615920	0.818040
H8321	H832	0.588900	0.631000	0.816900
C14371	C1437	0.570990	0.596380	0.819310
C14381	C1438	0.547900	0.598980	0.819960
C14391	C1439	0.536700	0.589720	0.834420
H8331	H833	0.545200	0.582400	0.844800
C14401	C1440	0.513340	0.590710	0.834370
H8341	H834	0.505700	0.583400	0.844100
C14411	C1441	0.500680	0.602260	0.820220
C14421	C1442	0.511870	0.612250	0.806520
H8351	H835	0.504200	0.620500	0.796900
C14431	C1443	0.535200	0.610310	0.806970
H8361	H836	0.542900	0.617600	0.797300
C14441	C1444	0.475600	0.602960	0.821720
O3051	O305	0.196930	0.372830	0.782360
O3061	O306	0.244400	0.397730	0.806710
O3071	O307	0.176140	0.205250	0.557190
O3081	O308	0.196310	0.225310	0.537620
O3091	O309	0.028570	0.371720	0.866830
O3101	O310	0.028530	0.331250	0.846120
O3111	O311	0.195560	0.383940	0.851360
O3121	O312	0.242620	0.408130	0.874630
C14451	C1445	0.221430	0.382860	0.785070
C14461	C1446	0.221370	0.377870	0.757520
C14471	C1447	0.198600	0.355670	0.731230
H8371	H837	0.182300	0.343300	0.730200
C14481	C1448	0.199450	0.351470	0.707160
H8381	H838	0.183600	0.336200	0.689600
C14491	C1449	0.223170	0.369210	0.707740
C14501	C1450	0.244420	0.391050	0.733250
H8391	H839	0.260200	0.404200	0.734200
C14511	C1451	0.244540	0.395280	0.757800
H8401	H840	0.260700	0.410300	0.775200
C14521	C1452	0.223250	0.364510	0.680400
C14531	C1453	0.214770	0.338020	0.659850
H8411	H841	0.208900	0.322500	0.662800
C14541	C1454	0.214710	0.333890	0.634700
C14551	C1455	0.222540	0.356310	0.631930
H8421	H842	0.222100	0.353400	0.614700
C14561	C1456	0.231590	0.384360	0.651590
C14571	C1457	0.231870	0.387650	0.675460
H8431	H843	0.238000	0.405900	0.689700
C14581	C1458	0.206880	0.306110	0.614450
C14591	C1459	0.190340	0.281810	0.612490
H8441	H844	0.183100	0.282700	0.625000
C14601	C1460	0.183850	0.256150	0.592960
H8451	H845	0.171800	0.239500	0.591700
C14611	C1461	0.194960	0.254390	0.574790
C14621	C1462	0.211420	0.278110	0.577250
H8461	H846	0.219400	0.277600	0.565400
C14631	C1463	0.217260	0.303250	0.596410
H8471	H847	0.229200	0.319800	0.597400
C14641	C1464	0.188880	0.226570	0.555530
C14651	C1465	0.035810	0.353750	0.867040
C14661	C1466	0.057240	0.360360	0.894600
C14671	C1467	0.069660	0.386410	0.918610
H8481	H848	0.064300	0.399700	0.917000
C14681	C1468	0.089620	0.393280	0.944720
H8491	H849	0.097800	0.411100	0.960700
C14691	C1469	0.097570	0.374000	0.947410
C14701	C1470	0.085980	0.348440	0.923560
H8501	H850	0.091800	0.335300	0.924900
C14711	C1471	0.065710	0.342000	0.897430
H8511	H851	0.057800	0.324400	0.881400
C14721	C1472	0.120150	0.380180	0.974750
C14731	C1473	0.138000	0.368870	0.975410
H8521	H852	0.135200	0.356100	0.958100
H8531	H853	0.187100	0.363700	0.016800
C14741	C1474	0.202120	0.384080	0.975160
H8541	H854	0.185900	0.369000	0.957900
C14751	C1475	0.222930	0.403620	0.974610
C14761	C1476	0.220980	0.401020	0.948920
C14771	C1477	0.244700	0.410280	0.946980
H8551	H855	0.262400	0.417600	0.962800
C14781	C1478	0.243660	0.409290	0.922630
H8561	H856	0.260700	0.416600	0.922300
C14791	C1479	0.217960	0.397740	0.898420
C14801	C1480	0.194270	0.387750	0.899620
H8571	H857	0.176400	0.379500	0.883700
C14811	C1481	0.196660	0.389690	0.924890
H8581	H858	0.179700	0.382400	0.925300
C14821	C1482	0.218760	0.397040	0.872640
O3131	O313	0.590470	0.414570	0.217640
O3141	O314	0.591020	0.437690	0.193290
O3151	O315	0.648060	0.618950	0.442810
O3161	O316	0.687690	0.658690	0.462380
O3171	O317	0.504890	0.161740	0.133170
O3181	O318	0.485130	0.182410	0.153880
O3191	O319	0.532580	0.344200	0.148640
O3201	O320	0.533500	0.367990	0.125370
C14831	C1483	0.597790	0.436360	0.214930
C14841	C1484	0.620350	0.463850	0.242480
C14851	C1485	0.624440	0.467370	0.268770
H8591	H859	0.613100	0.452100	0.269800
C14861	C1486	0.644310	0.492290	0.292840
H8601	H860	0.646600	0.494000	0.310400
C14871	C1487	0.661470	0.515430	0.292260
C14881	C1488	0.657800	0.511170	0.266750
H8611	H861	0.670000	0.526000	0.265800
C14891	C1489	0.637480	0.486740	0.242200
H8621	H862	0.635100	0.485500	0.224800
C14901	C1490	0.684110	0.542850	0.319600
C14911	C1491	0.678170	0.554920	0.340150
H8631	H863	0.659700	0.546100	0.337200
C14921	C1492	0.699190	0.580010	0.365300
C14931	C1493	0.724380	0.590610	0.368070
H8641	H864	0.738700	0.607400	0.385300
C14941	C1494	0.732770	0.580000	0.348410
C14951	C1495	0.712190	0.556410	0.324540
H8651	H865	0.716200	0.548300	0.310300
C14961	C1496	0.691660	0.592430	0.385550
C14971	C1497	0.669320	0.577850	0.387510
H8661	H866	0.657700	0.558100	0.375000
C14981	C1498	0.663190	0.590890	0.407040
H8671	H867	0.647800	0.580100	0.408300
C14991	C1499	0.679600	0.620170	0.425210
C15001	C1500	0.700860	0.634170	0.422750
H8681	H868	0.712200	0.654000	0.434600
C15011	C1501	0.706840	0.620850	0.403590
H8691	H869	0.722400	0.631800	0.402600
C15021	C1502	0.671040	0.633350	0.444470
C15031	C1503	0.486710	0.168770	0.132960
C15041	C1504	0.465760	0.162640	0.105400
C15051	C1505	0.467800	0.151050	0.081390
H8701	H870	0.482700	0.147300	0.083000
C15061	C1506	0.448560	0.144900	0.055280
H8711	H871	0.450400	0.137100	0.039300
C15071	C1507	0.426590	0.150160	0.052590
C15081	C1508	0.424880	0.162420	0.076440
H8721	H872	0.410400	0.166900	0.075100
C15091	C1509	0.444570	0.168280	0.102570
H8731	H873	0.443000	0.176400	0.118600
C15101	C1510	0.405430	0.145400	0.025250
C15111	C1511	0.393460	0.162590	0.024590
H8741	H874	0.398000	0.177100	0.041900
H8751	H875	0.346900	0.170300	0.983200
C15121	C1512	0.408920	0.226960	0.024840
H8761	H876	0.411100	0.228000	0.042100
C15131	C1513	0.429010	0.248320	0.025390
C15141	C1514	0.452100	0.272060	0.051080
C15151	C1515	0.463300	0.297720	0.053020
H8771	H877	0.454800	0.299600	0.037200
C15161	C1516	0.486660	0.321030	0.077370
H8781	H878	0.494300	0.338400	0.077700
C15171	C1517	0.499320	0.319540	0.101580
C15181	C1518	0.488130	0.294650	0.100380
H8791	H879	0.495800	0.292700	0.116300
C15191	C1519	0.464800	0.271770	0.075110
H8801	H880	0.457100	0.254400	0.074700
C15201	C1520	0.524400	0.346120	0.127360
O3211	O321	0.414570	0.217640	0.590470
O3221	O322	0.437690	0.193290	0.591020
O3231	O323	0.618950	0.442810	0.648060
O3241	O324	0.658690	0.462380	0.687690
O3251	O325	0.161740	0.133170	0.504890
O3261	O326	0.182410	0.153880	0.485130
O3271	O327	0.344200	0.148640	0.532580
O3281	O328	0.367990	0.125370	0.533500
C15211	C1521	0.436360	0.214930	0.597790
C15221	C1522	0.463850	0.242480	0.620350
C15231	C1523	0.467370	0.268770	0.624440
H8811	H881	0.452100	0.269800	0.613100
C15241	C1524	0.492290	0.292840	0.644310
H8821	H882	0.494000	0.310400	0.646600
C15251	C1525	0.515430	0.292260	0.661470
C15261	C1526	0.511170	0.266750	0.657800
H8831	H883	0.526000	0.265800	0.670000
C15271	C1527	0.486740	0.242200	0.637480
H8841	H884	0.485500	0.224800	0.635100
C15281	C1528	0.542850	0.319600	0.684110
C15291	C1529	0.554920	0.340150	0.678170
H8851	H885	0.546100	0.337200	0.659700
C15301	C1530	0.580010	0.365300	0.699190
C15311	C1531	0.590610	0.368070	0.724380
H8861	H886	0.607400	0.385300	0.738700
C15321	C1532	0.580000	0.348410	0.732770
C15331	C1533	0.556410	0.324540	0.712190
H8871	H887	0.548300	0.310300	0.716200
C15341	C1534	0.592430	0.385550	0.691660
C15351	C1535	0.577850	0.387510	0.669320
H8881	H888	0.558100	0.375000	0.657700
C15361	C1536	0.590890	0.407040	0.663190
H8891	H889	0.580100	0.408300	0.647800
C15371	C1537	0.620170	0.425210	0.679600
C15381	C1538	0.634170	0.422750	0.700860
H8901	H890	0.654000	0.434600	0.712200
C15391	C1539	0.620850	0.403590	0.706840
H8911	H891	0.631800	0.402600	0.722400
C15401	C1540	0.633350	0.444470	0.671040
C15411	C1541	0.168770	0.132960	0.486710
C15421	C1542	0.162640	0.105400	0.465760
C15431	C1543	0.151050	0.081390	0.467800
H8921	H892	0.147300	0.083000	0.482700
C15441	C1544	0.144900	0.055280	0.448560
H8931	H893	0.137100	0.039300	0.450400
C15451	C1545	0.150160	0.052590	0.426590
C15461	C1546	0.162420	0.076440	0.424880
H8941	H894	0.166900	0.075100	0.410400
C15471	C1547	0.168280	0.102570	0.444570
H8951	H895	0.176400	0.118600	0.443000
C15481	C1548	0.145400	0.025250	0.405430
C15491	C1549	0.162590	0.024590	0.393460
H8961	H896	0.177100	0.041900	0.398000
H8971	H897	0.170300	0.983200	0.346900
C15501	C1550	0.226960	0.024840	0.408920
H8981	H898	0.228000	0.042100	0.411100
C15511	C1551	0.248320	0.025390	0.429010
C15521	C1552	0.272060	0.051080	0.452100
C15531	C1553	0.297720	0.053020	0.463300
H8991	H899	0.299600	0.037200	0.454800
C15541	C1554	0.321030	0.077370	0.486660
H9001	H900	0.338400	0.077700	0.494300
C15551	C1555	0.319540	0.101580	0.499320
C15561	C1556	0.294650	0.100380	0.488130
H9011	H901	0.292700	0.116300	0.495800
C15571	C1557	0.271770	0.075110	0.464800
H9021	H902	0.254400	0.074700	0.457100
C15581	C1558	0.346120	0.127360	0.524400
O3291	O329	0.372830	0.782360	0.196930
O3301	O330	0.397730	0.806710	0.244400
O3311	O331	0.205250	0.557190	0.176140
O3321	O332	0.225310	0.537620	0.196310
O3331	O333	0.371720	0.866830	0.028570
O3341	O334	0.331250	0.846120	0.028530
O3351	O335	0.383940	0.851360	0.195560
O3361	O336	0.408130	0.874630	0.242620
C15591	C1559	0.382860	0.785070	0.221430
C15601	C1560	0.377870	0.757520	0.221370
C15611	C1561	0.355670	0.731230	0.198600
H9031	H903	0.343300	0.730200	0.182300
C15621	C1562	0.351470	0.707160	0.199450
H9041	H904	0.336200	0.689600	0.183600
C15631	C1563	0.369210	0.707740	0.223170
C15641	C1564	0.391050	0.733250	0.244420
H9051	H905	0.404200	0.734200	0.260200
C15651	C1565	0.395280	0.757800	0.244540
H9061	H906	0.410300	0.775200	0.260700
C15661	C1566	0.364510	0.680400	0.223250
C15671	C1567	0.338020	0.659850	0.214770
H9071	H907	0.322500	0.662800	0.208900
C15681	C1568	0.333890	0.634700	0.214710
C15691	C1569	0.356310	0.631930	0.222540
H9081	H908	0.353400	0.614700	0.222100
C15701	C1570	0.384360	0.651590	0.231590
C15711	C1571	0.387650	0.675460	0.231870
H9091	H909	0.405900	0.689700	0.238000
C15721	C1572	0.306110	0.614450	0.206880
C15731	C1573	0.281810	0.612490	0.190340
H9101	H910	0.282700	0.625000	0.183100
C15741	C1574	0.256150	0.592960	0.183850
H9111	H911	0.239500	0.591700	0.171800
C15751	C1575	0.254390	0.574790	0.194960
C15761	C1576	0.278110	0.577250	0.211420
H9121	H912	0.277600	0.565400	0.219400
C15771	C1577	0.303250	0.596410	0.217260
H9131	H913	0.319800	0.597400	0.229200
C15781	C1578	0.226570	0.555530	0.188880
C15791	C1579	0.353750	0.867040	0.035810
C15801	C1580	0.360360	0.894600	0.057240
C15811	C1581	0.386410	0.918610	0.069660
H9141	H914	0.399700	0.917000	0.064300
C15821	C1582	0.393280	0.944720	0.089620
H9151	H915	0.411100	0.960700	0.097800
C15831	C1583	0.374000	0.947410	0.097570
C15841	C1584	0.348440	0.923560	0.085980
H9161	H916	0.335300	0.924900	0.091800
C15851	C1585	0.342000	0.897430	0.065710
H9171	H917	0.324400	0.881400	0.057800
C15861	C1586	0.380180	0.974750	0.120150
C15871	C1587	0.368870	0.975410	0.138000
H9181	H918	0.356100	0.958100	0.135200
H9191	H919	0.363700	0.016800	0.187100
C15881	C1588	0.384080	0.975160	0.202120
H9201	H920	0.369000	0.957900	0.185900
C15891	C1589	0.403620	0.974610	0.222930
C15901	C1590	0.401020	0.948920	0.220980
C15911	C1591	0.410280	0.946980	0.244700
H9211	H921	0.417600	0.962800	0.262400
C15921	C1592	0.409290	0.922630	0.243660
H9221	H922	0.416600	0.922300	0.260700
C15931	C1593	0.397740	0.898420	0.217960
C15941	C1594	0.387750	0.899620	0.194270
H9231	H923	0.379500	0.883700	0.176400
C15951	C1595	0.389690	0.924890	0.196660
H9241	H924	0.382400	0.925300	0.179700
C15961	C1596	0.397040	0.872640	0.218760
O3371	O337	0.627170	0.824100	0.409530
O3381	O338	0.602270	0.846670	0.408980
O3391	O339	0.794750	0.970890	0.351940
O3401	O340	0.774690	0.971000	0.312310
O3411	O341	0.628280	0.656850	0.495110
O3421	O342	0.668750	0.697280	0.514870
O3431	O343	0.616060	0.811620	0.467420
O3441	O344	0.591870	0.834490	0.466500
C15971	C1597	0.617140	0.838570	0.402210
C15981	C1598	0.622130	0.843500	0.379650
C15991	C1599	0.644330	0.842930	0.375560
H9251	H925	0.656700	0.839000	0.386900
C16001	C1600	0.648530	0.847980	0.355690
H9261	H926	0.663800	0.847400	0.353400
C16011	C1601	0.630790	0.853960	0.338530
C16021	C1602	0.608950	0.853370	0.342200
H9271	H927	0.595800	0.856000	0.330000
C16031	C1603	0.604720	0.849260	0.362520
H9281	H928	0.589700	0.850400	0.364900
C16041	C1604	0.635490	0.858740	0.315890
C16051	C1605	0.661980	0.876750	0.321830
H9291	H929	0.677500	0.886400	0.340300
C16061	C1606	0.666110	0.880820	0.300810
C16071	C1607	0.643690	0.866230	0.275620
H9301	H930	0.646600	0.868700	0.261300
C16081	C1608	0.615640	0.847230	0.267230
C16091	C1609	0.612350	0.844220	0.287810
H9311	H931	0.594100	0.832100	0.283800
C16101	C1610	0.693890	0.900770	0.308340
C16111	C1611	0.718190	0.908530	0.330680
H9321	H932	0.717300	0.900400	0.342300
C16121	C1612	0.743850	0.927700	0.336810
H9331	H933	0.760500	0.932300	0.352200
C16131	C1613	0.745610	0.940570	0.320400
C16141	C1614	0.721890	0.933310	0.299140
H9341	H934	0.722400	0.941800	0.287800
C16151	C1615	0.696750	0.914010	0.293160
H9351	H935	0.680200	0.909400	0.277600
C16161	C1616	0.773430	0.962310	0.328960
C16171	C1617	0.646250	0.682060	0.513290
C16181	C1618	0.639640	0.696880	0.534240
C16191	C1619	0.613590	0.683250	0.532200
H9361	H936	0.600300	0.664600	0.517300
C16201	C1620	0.606720	0.696340	0.551440
H9371	H937	0.588900	0.686700	0.549600
C16211	C1621	0.626000	0.723570	0.573410
C16221	C1622	0.651560	0.737540	0.575120
H9381	H938	0.664700	0.756500	0.589600
C16231	C1623	0.658000	0.723710	0.555430
H9391	H939	0.675600	0.733400	0.557000
C16241	C1624	0.619820	0.739970	0.594570
C16251	C1625	0.631130	0.769130	0.606540
H9401	H940	0.643900	0.779100	0.602000
H9411	H941	0.636300	0.823400	0.653100
C16261	C1626	0.615920	0.818040	0.591080
H9421	H942	0.631000	0.816900	0.588900
C16271	C1627	0.596380	0.819310	0.570990
C16281	C1628	0.598980	0.819960	0.547900
C16291	C1629	0.589720	0.834420	0.536700
H9431	H943	0.582400	0.844800	0.545200
C16301	C1630	0.590710	0.834370	0.513340
H9441	H944	0.583400	0.844100	0.505700
C16311	C1631	0.602260	0.820220	0.500680
C16321	C1632	0.612250	0.806520	0.511870
H9451	H945	0.620500	0.796900	0.504200
C16331	C1633	0.610310	0.806970	0.535200
H9461	H946	0.617600	0.797300	0.542900
C16341	C1634	0.602960	0.821720	0.475600
O3451	O345	0.585430	0.175900	0.803070
O3461	O346	0.562310	0.153330	0.755600
O3471	O347	0.381050	0.029110	0.823860
O3481	O348	0.341310	0.029000	0.803690
O3491	O349	0.838260	0.343150	0.971430
O3501	O350	0.817590	0.302720	0.971470
O3511	O351	0.655800	0.188380	0.804440
O3521	O352	0.632010	0.165510	0.757380
C16351	C1635	0.563640	0.161430	0.778570
C16361	C1636	0.536150	0.156500	0.778630
C16371	C1637	0.532630	0.157070	0.801400
H9471	H947	0.547900	0.161000	0.817700
C16381	C1638	0.507710	0.152020	0.800550
H9481	H948	0.506000	0.152600	0.816400
C16391	C1639	0.484570	0.146040	0.776830
C16401	C1640	0.488830	0.146630	0.755580
H9491	H949	0.474000	0.144000	0.739800
C16411	C1641	0.513260	0.150740	0.755460
H9501	H950	0.514500	0.149600	0.739300
C16421	C1642	0.457150	0.141260	0.776750
C16431	C1643	0.445080	0.123250	0.785230
H9511	H951	0.453900	0.113600	0.791100
C16441	C1644	0.419990	0.119180	0.785290
C16451	C1645	0.409390	0.133770	0.777460
H9521	H952	0.392600	0.131300	0.777900
C16461	C1646	0.420000	0.152770	0.768410
C16471	C1647	0.443590	0.155780	0.768130
H9531	H953	0.451700	0.167900	0.762000
C16481	C1648	0.407570	0.099230	0.793120
C16491	C1649	0.422150	0.091470	0.809660
H9541	H954	0.441900	0.099600	0.816900
C16501	C1650	0.409110	0.072300	0.816150
H9551	H955	0.419900	0.067700	0.828200
C16511	C1651	0.379830	0.059430	0.805040
C16521	C1652	0.365830	0.066690	0.788580
H9561	H956	0.346000	0.058200	0.780600
C16531	C1653	0.379150	0.085990	0.782740
H9571	H957	0.368200	0.090600	0.770800
C16541	C1654	0.366650	0.037690	0.811120
C16551	C1655	0.831230	0.317940	0.964190
C16561	C1656	0.837360	0.303120	0.942760
C16571	C1657	0.848950	0.316750	0.930340
H9581	H958	0.852700	0.335400	0.935700
C16581	C1658	0.855100	0.303660	0.910380
H9591	H959	0.862900	0.313300	0.902200
C16591	C1659	0.849840	0.276430	0.902430
C16601	C1660	0.837580	0.262460	0.914020
H9601	H960	0.833100	0.243500	0.908200
C16611	C1661	0.831720	0.276290	0.934290
H9611	H961	0.823600	0.266600	0.942200
C16621	C1662	0.854600	0.260030	0.879850
C16631	C1663	0.837410	0.230870	0.862000
H9621	H962	0.822900	0.220900	0.864800
H9631	H963	0.829700	0.176600	0.812900
C16641	C1664	0.773040	0.181960	0.797880
H9641	H964	0.772000	0.183100	0.814100
C16651	C1665	0.751680	0.180690	0.777070
C16661	C1666	0.727940	0.180040	0.779020
C16671	C1667	0.702280	0.165580	0.755300
H9651	H965	0.700400	0.155200	0.737600
C16681	C1668	0.678970	0.165630	0.756340
H9661	H966	0.661600	0.155900	0.739300
C16691	C1669	0.680460	0.179780	0.782040
C16701	C1670	0.705350	0.193480	0.805730
H9671	H967	0.707300	0.203100	0.823600
C16711	C1671	0.728230	0.193030	0.803340
H9681	H968	0.745600	0.202700	0.820300
C16721	C1672	0.653880	0.178280	0.781240
O3531	O353	0.782360	0.196930	0.372830
O3541	O354	0.806710	0.244400	0.397730
O3551	O355	0.557190	0.176140	0.205250
O3561	O356	0.537620	0.196310	0.225310
O3571	O357	0.866830	0.028570	0.371720
O3581	O358	0.846120	0.028530	0.331250
O3591	O359	0.851360	0.195560	0.383940
O3601	O360	0.874630	0.242620	0.408130
C16731	C1673	0.785070	0.221430	0.382860
C16741	C1674	0.757520	0.221370	0.377870
C16751	C1675	0.731230	0.198600	0.355670
H9691	H969	0.730200	0.182300	0.343300
C16761	C1676	0.707160	0.199450	0.351470
H9701	H970	0.689600	0.183600	0.336200
C16771	C1677	0.707740	0.223170	0.369210
C16781	C1678	0.733250	0.244420	0.391050
H9711	H971	0.734200	0.260200	0.404200
C16791	C1679	0.757800	0.244540	0.395280
H9721	H972	0.775200	0.260700	0.410300
C16801	C1680	0.680400	0.223250	0.364510
C16811	C1681	0.659850	0.214770	0.338020
H9731	H973	0.662800	0.208900	0.322500
C16821	C1682	0.634700	0.214710	0.333890
C16831	C1683	0.631930	0.222540	0.356310
H9741	H974	0.614700	0.222100	0.353400
C16841	C1684	0.651590	0.231590	0.384360
C16851	C1685	0.675460	0.231870	0.387650
H9751	H975	0.689700	0.238000	0.405900
C16861	C1686	0.614450	0.206880	0.306110
C16871	C1687	0.612490	0.190340	0.281810
H9761	H976	0.625000	0.183100	0.282700
C16881	C1688	0.592960	0.183850	0.256150
H9771	H977	0.591700	0.171800	0.239500
C16891	C1689	0.574790	0.194960	0.254390
C16901	C1690	0.577250	0.211420	0.278110
H9781	H978	0.565400	0.219400	0.277600
C16911	C1691	0.596410	0.217260	0.303250
H9791	H979	0.597400	0.229200	0.319800
C16921	C1692	0.555530	0.188880	0.226570
C16931	C1693	0.867040	0.035810	0.353750
C16941	C1694	0.894600	0.057240	0.360360
C16951	C1695	0.918610	0.069660	0.386410
H9801	H980	0.917000	0.064300	0.399700
C16961	C1696	0.944720	0.089620	0.393280
H9811	H981	0.960700	0.097800	0.411100
C16971	C1697	0.947410	0.097570	0.374000
C16981	C1698	0.923560	0.085980	0.348440
H9821	H982	0.924900	0.091800	0.335300
C16991	C1699	0.897430	0.065710	0.342000
H9831	H983	0.881400	0.057800	0.324400
C17001	C1700	0.974750	0.120150	0.380180
C17011	C1701	0.975410	0.138000	0.368870
H9841	H984	0.958100	0.135200	0.356100
H9851	H985	0.016800	0.187100	0.363700
C17021	C1702	0.975160	0.202120	0.384080
H9861	H986	0.957900	0.185900	0.369000
C17031	C1703	0.974610	0.222930	0.403620
C17041	C1704	0.948920	0.220980	0.401020
C17051	C1705	0.946980	0.244700	0.410280
H9871	H987	0.962800	0.262400	0.417600
C17061	C1706	0.922630	0.243660	0.409290
H9881	H988	0.922300	0.260700	0.416600
C17071	C1707	0.898420	0.217960	0.397740
C17081	C1708	0.899620	0.194270	0.387750
H9891	H989	0.883700	0.176400	0.379500
C17091	C1709	0.924890	0.196660	0.389690
H9901	H990	0.925300	0.179700	0.382400
C17101	C1710	0.872640	0.218760	0.397040
O3611	O361	0.217640	0.590470	0.414570
O3621	O362	0.193290	0.591020	0.437690
O3631	O363	0.442810	0.648060	0.618950
O3641	O364	0.462380	0.687690	0.658690
O3651	O365	0.133170	0.504890	0.161740
O3661	O366	0.153880	0.485130	0.182410
O3671	O367	0.148640	0.532580	0.344200
O3681	O368	0.125370	0.533500	0.367990
C17111	C1711	0.214930	0.597790	0.436360
C17121	C1712	0.242480	0.620350	0.463850
C17131	C1713	0.268770	0.624440	0.467370
H9911	H991	0.269800	0.613100	0.452100
C17141	C1714	0.292840	0.644310	0.492290
H9921	H992	0.310400	0.646600	0.494000
C17151	C1715	0.292260	0.661470	0.515430
C17161	C1716	0.266750	0.657800	0.511170
H9931	H993	0.265800	0.670000	0.526000
C17171	C1717	0.242200	0.637480	0.486740
H9941	H994	0.224800	0.635100	0.485500
C17181	C1718	0.319600	0.684110	0.542850
C17191	C1719	0.340150	0.678170	0.554920
H9951	H995	0.337200	0.659700	0.546100
C17201	C1720	0.365300	0.699190	0.580010
C17211	C1721	0.368070	0.724380	0.590610
H9961	H996	0.385300	0.738700	0.607400
C17221	C1722	0.348410	0.732770	0.580000
C17231	C1723	0.324540	0.712190	0.556410
H9971	H997	0.310300	0.716200	0.548300
C17241	C1724	0.385550	0.691660	0.592430
C17251	C1725	0.387510	0.669320	0.577850
H9981	H998	0.375000	0.657700	0.558100
C17261	C1726	0.407040	0.663190	0.590890
H9991	H999	0.408300	0.647800	0.580100
C17271	C1727	0.425210	0.679600	0.620170
C17281	C1728	0.422750	0.700860	0.634170
H10001	H1000	0.434600	0.712200	0.654000
C17291	C1729	0.403590	0.706840	0.620850
H10011	H1001	0.402600	0.722400	0.631800
C17301	C1730	0.444470	0.671040	0.633350
C17311	C1731	0.132960	0.486710	0.168770
C17321	C1732	0.105400	0.465760	0.162640
C17331	C1733	0.081390	0.467800	0.151050
H10021	H1002	0.083000	0.482700	0.147300
C17341	C1734	0.055280	0.448560	0.144900
H10031	H1003	0.039300	0.450400	0.137100
C17351	C1735	0.052590	0.426590	0.150160
C17361	C1736	0.076440	0.424880	0.162420
H10041	H1004	0.075100	0.410400	0.166900
C17371	C1737	0.102570	0.444570	0.168280
H10051	H1005	0.118600	0.443000	0.176400
C17381	C1738	0.025250	0.405430	0.145400
C17391	C1739	0.024590	0.393460	0.162590
H10061	H1006	0.041900	0.398000	0.177100
H10071	H1007	0.983200	0.346900	0.170300
C17401	C1740	0.024840	0.408920	0.226960
H10081	H1008	0.042100	0.411100	0.228000
C17411	C1741	0.025390	0.429010	0.248320
C17421	C1742	0.051080	0.452100	0.272060
C17431	C1743	0.053020	0.463300	0.297720
H10091	H1009	0.037200	0.454800	0.299600
C17441	C1744	0.077370	0.486660	0.321030
H10101	H1010	0.077700	0.494300	0.338400
C17451	C1745	0.101580	0.499320	0.319540
C17461	C1746	0.100380	0.488130	0.294650
H10111	H1011	0.116300	0.495800	0.292700
C17471	C1747	0.075110	0.464800	0.271770
H10121	H1012	0.074700	0.457100	0.254400
C17481	C1748	0.127360	0.524400	0.346120
O3691	O369	0.175900	0.803070	0.585430
O3701	O370	0.153330	0.755600	0.562310
O3711	O371	0.029110	0.823860	0.381050
O3721	O372	0.029000	0.803690	0.341310
O3731	O373	0.343150	0.971430	0.838260
O3741	O374	0.302720	0.971470	0.817590
O3751	O375	0.188380	0.804440	0.655800
O3761	O376	0.165510	0.757380	0.632010
C17491	C1749	0.161430	0.778570	0.563640
C17501	C1750	0.156500	0.778630	0.536150
C17511	C1751	0.157070	0.801400	0.532630
H10131	H1013	0.161000	0.817700	0.547900
C17521	C1752	0.152020	0.800550	0.507710
H10141	H1014	0.152600	0.816400	0.506000
C17531	C1753	0.146040	0.776830	0.484570
C17541	C1754	0.146630	0.755580	0.488830
H10151	H1015	0.144000	0.739800	0.474000
C17551	C1755	0.150740	0.755460	0.513260
H10161	H1016	0.149600	0.739300	0.514500
C17561	C1756	0.141260	0.776750	0.457150
C17571	C1757	0.123250	0.785230	0.445080
H10171	H1017	0.113600	0.791100	0.453900
C17581	C1758	0.119180	0.785290	0.419990
C17591	C1759	0.133770	0.777460	0.409390
H10181	H1018	0.131300	0.777900	0.392600
C17601	C1760	0.152770	0.768410	0.420000
C17611	C1761	0.155780	0.768130	0.443590
H10191	H1019	0.167900	0.762000	0.451700
C17621	C1762	0.099230	0.793120	0.407570
C17631	C1763	0.091470	0.809660	0.422150
H10201	H1020	0.099600	0.816900	0.441900
C17641	C1764	0.072300	0.816150	0.409110
H10211	H1021	0.067700	0.828200	0.419900
C17651	C1765	0.059430	0.805040	0.379830
C17661	C1766	0.066690	0.788580	0.365830
H10221	H1022	0.058200	0.780600	0.346000
C17671	C1767	0.085990	0.782740	0.379150
H10231	H1023	0.090600	0.770800	0.368200
C17681	C1768	0.037690	0.811120	0.366650
C17691	C1769	0.317940	0.964190	0.831230
C17701	C1770	0.303120	0.942760	0.837360
C17711	C1771	0.316750	0.930340	0.848950
H10241	H1024	0.335400	0.935700	0.852700
C17721	C1772	0.303660	0.910380	0.855100
H10251	H1025	0.313300	0.902200	0.862900
C17731	C1773	0.276430	0.902430	0.849840
C17741	C1774	0.262460	0.914020	0.837580
H10261	H1026	0.243500	0.908200	0.833100
C17751	C1775	0.276290	0.934290	0.831720
H10271	H1027	0.266600	0.942200	0.823600
C17761	C1776	0.260030	0.879850	0.854600
C17771	C1777	0.230870	0.862000	0.837410
H10281	H1028	0.220900	0.864800	0.822900
H10291	H1029	0.176600	0.812900	0.829700
C17781	C1778	0.181960	0.797880	0.773040
H10301	H1030	0.183100	0.814100	0.772000
C17791	C1779	0.180690	0.777070	0.751680
C17801	C1780	0.180040	0.779020	0.727940
C17811	C1781	0.165580	0.755300	0.702280
H10311	H1031	0.155200	0.737600	0.700400
C17821	C1782	0.165630	0.756340	0.678970
H10321	H1032	0.155900	0.739300	0.661600
C17831	C1783	0.179780	0.782040	0.680460
C17841	C1784	0.193480	0.805730	0.705350
H10331	H1033	0.203100	0.823600	0.707300
C17851	C1785	0.193030	0.803340	0.728230
H10341	H1034	0.202700	0.820300	0.745600
C17861	C1786	0.178280	0.781240	0.653880
O3771	O377	0.824100	0.409530	0.627170
O3781	O378	0.846670	0.408980	0.602270
O3791	O379	0.970890	0.351940	0.794750
O3801	O380	0.971000	0.312310	0.774690
O3811	O381	0.656850	0.495110	0.628280
O3821	O382	0.697280	0.514870	0.668750
O3831	O383	0.811620	0.467420	0.616060
O3841	O384	0.834490	0.466500	0.591870
C17871	C1787	0.838570	0.402210	0.617140
C17881	C1788	0.843500	0.379650	0.622130
C17891	C1789	0.842930	0.375560	0.644330
H10351	H1035	0.839000	0.386900	0.656700
C17901	C1790	0.847980	0.355690	0.648530
H10361	H1036	0.847400	0.353400	0.663800
C17911	C1791	0.853960	0.338530	0.630790
C17921	C1792	0.853370	0.342200	0.608950
H10371	H1037	0.856000	0.330000	0.595800
C17931	C1793	0.849260	0.362520	0.604720
H10381	H1038	0.850400	0.364900	0.589700
C17941	C1794	0.858740	0.315890	0.635490
C17951	C1795	0.876750	0.321830	0.661980
H10391	H1039	0.886400	0.340300	0.677500
C17961	C1796	0.880820	0.300810	0.666110
C17971	C1797	0.866230	0.275620	0.643690
H10401	H1040	0.868700	0.261300	0.646600
C17981	C1798	0.847230	0.267230	0.615640
C17991	C1799	0.844220	0.287810	0.612350
H10411	H1041	0.832100	0.283800	0.594100
C18001	C1800	0.900770	0.308340	0.693890
C18011	C1801	0.908530	0.330680	0.718190
H10421	H1042	0.900400	0.342300	0.717300
C18021	C1802	0.927700	0.336810	0.743850
H10431	H1043	0.932300	0.352200	0.760500
C18031	C1803	0.940570	0.320400	0.745610
C18041	C1804	0.933310	0.299140	0.721890
H10441	H1044	0.941800	0.287800	0.722400
C18051	C1805	0.914010	0.293160	0.696750
H10451	H1045	0.909400	0.277600	0.680200
C18061	C1806	0.962310	0.328960	0.773430
C18071	C1807	0.682060	0.513290	0.646250
C18081	C1808	0.696880	0.534240	0.639640
C18091	C1809	0.683250	0.532200	0.613590
H10461	H1046	0.664600	0.517300	0.600300
C18101	C1810	0.696340	0.551440	0.606720
H10471	H1047	0.686700	0.549600	0.588900
C18111	C1811	0.723570	0.573410	0.626000
C18121	C1812	0.737540	0.575120	0.651560
H10481	H1048	0.756500	0.589600	0.664700
C18131	C1813	0.723710	0.555430	0.658000
H10491	H1049	0.733400	0.557000	0.675600
C18141	C1814	0.739970	0.594570	0.619820
C18151	C1815	0.769130	0.606540	0.631130
H10501	H1050	0.779100	0.602000	0.643900
H10511	H1051	0.823400	0.653100	0.636300
C18161	C1816	0.818040	0.591080	0.615920
H10521	H1052	0.816900	0.588900	0.631000
C18171	C1817	0.819310	0.570990	0.596380
C18181	C1818	0.819960	0.547900	0.598980
C18191	C1819	0.834420	0.536700	0.589720
H10531	H1053	0.844800	0.545200	0.582400
C18201	C1820	0.834370	0.513340	0.590710
H10541	H1054	0.844100	0.505700	0.583400
C18211	C1821	0.820220	0.500680	0.602260
C18221	C1822	0.806520	0.511870	0.612250
H10551	H1055	0.796900	0.504200	0.620500
C18231	C1823	0.806970	0.535200	0.610310
H10561	H1056	0.797300	0.542900	0.617600
C18241	C1824	0.821720	0.475600	0.602960
Cu11	Cu1	0.622880	0.437720	0.814840
Cu21	Cu2	0.595250	0.437680	0.842430
Cu31	Cu3	0.622880	0.808040	0.185160
Cu41	Cu4	0.595250	0.752820	0.157570
Cu51	Cu5	0.377120	0.562280	0.185160
Cu61	Cu6	0.404750	0.562320	0.157570
Cu71	Cu7	0.377120	0.191960	0.814840
Cu81	Cu8	0.404750	0.247180	0.842430
Cu91	Cu9	0.814840	0.622880	0.437720
Cu101	Cu10	0.842430	0.595250	0.437680
Cu111	Cu11	0.185160	0.622880	0.808040
Cu121	Cu12	0.157570	0.595250	0.752820
Cu131	Cu13	0.185160	0.377120	0.562280
Cu141	Cu14	0.157570	0.404750	0.562320
Cu151	Cu15	0.814840	0.377120	0.191960
Cu161	Cu16	0.842430	0.404750	0.247180
Cu171	Cu17	0.437720	0.814840	0.622880
Cu181	Cu18	0.437680	0.842430	0.595250
Cu191	Cu19	0.808040	0.185160	0.622880
Cu201	Cu20	0.752820	0.157570	0.595250
Cu211	Cu21	0.562280	0.185160	0.377120
Cu221	Cu22	0.562320	0.157570	0.404750
Cu231	Cu23	0.191960	0.814840	0.377120
Cu241	Cu24	0.247180	0.842430	0.404750
Cu251	Cu25	0.191960	0.377120	0.814840
Cu261	Cu26	0.247180	0.404750	0.842430
Cu271	Cu27	0.562280	0.377120	0.185160
Cu281	Cu28	0.562320	0.404750	0.157570
Cu291	Cu29	0.808040	0.622880	0.185160
Cu301	Cu30	0.752820	0.595250	0.157570
Cu311	Cu31	0.437720	0.622880	0.814840
Cu321	Cu32	0.437680	0.595250	0.842430
Cu331	Cu33	0.622880	0.814840	0.437720
Cu341	Cu34	0.595250	0.842430	0.437680
Cu351	Cu35	0.622880	0.185160	0.808040
Cu361	Cu36	0.595250	0.157570	0.752820
Cu371	Cu37	0.377120	0.185160	0.562280
Cu381	Cu38	0.404750	0.157570	0.562320
Cu391	Cu39	0.377120	0.814840	0.191960
Cu401	Cu40	0.404750	0.842430	0.247180
Cu411	Cu41	0.185160	0.808040	0.622880
Cu421	Cu42	0.157570	0.752820	0.595250
Cu431	Cu43	0.814840	0.437720	0.622880
Cu441	Cu44	0.842430	0.437680	0.595250
Cu451	Cu45	0.814840	0.191960	0.377120
Cu461	Cu46	0.842430	0.247180	0.404750
Cu471	Cu47	0.185160	0.562280	0.377120
Cu481	Cu48	0.157570	0.562320	0.404750
Cu491	Cu49	0.832940	0.365350	0.000000
Cu501	Cu50	0.808830	0.318240	0.000000
Cu511	Cu51	0.365350	0.832940	0.000000
Cu521	Cu52	0.318240	0.808830	0.000000
Cu531	Cu53	0.634650	0.634650	0.467590
Cu541	Cu54	0.681760	0.681760	0.490590
Cu551	Cu55	0.167060	0.167060	0.532410
Cu561	Cu56	0.191170	0.191170	0.509410
Cu571	Cu57	0.000000	0.832940	0.365350
Cu581	Cu58	0.000000	0.808830	0.318240
Cu591	Cu59	0.000000	0.365350	0.832940
Cu601	Cu60	0.000000	0.318240	0.808830
Cu611	Cu61	0.467590	0.634650	0.634650
Cu621	Cu62	0.490590	0.681760	0.681760
Cu631	Cu63	0.532410	0.167060	0.167060
Cu641	Cu64	0.509410	0.191170	0.191170
Cu651	Cu65	0.365350	0.000000	0.832940
Cu661	Cu66	0.318240	0.000000	0.808830
Cu671	Cu67	0.832940	0.000000	0.365350
Cu681	Cu68	0.808830	0.000000	0.318240
Cu691	Cu69	0.634650	0.467590	0.634650
Cu701	Cu70	0.681760	0.490590	0.681760
Cu711	Cu71	0.167060	0.532410	0.167060
Cu721	Cu72	0.191170	0.509410	0.191170
Cu731	Cu73	0.167060	0.634650	0.000000
Cu741	Cu74	0.191170	0.681760	0.000000
Cu751	Cu75	0.634650	0.167060	0.000000
Cu761	Cu76	0.681760	0.191170	0.000000
Cu771	Cu77	0.832940	0.832940	0.467590
Cu781	Cu78	0.808830	0.808830	0.490590
Cu791	Cu79	0.365350	0.365350	0.532410
Cu801	Cu80	0.318240	0.318240	0.509410
Cu811	Cu81	0.365350	0.532410	0.365350
Cu821	Cu82	0.318240	0.509410	0.318240
Cu831	Cu83	0.832940	0.467590	0.832940
Cu841	Cu84	0.808830	0.490590	0.808830
Cu851	Cu85	0.167060	0.000000	0.634650
Cu861	Cu86	0.191170	0.000000	0.681760
Cu871	Cu87	0.634650	0.000000	0.167060
Cu881	Cu88	0.681760	0.000000	0.191170
Cu891	Cu89	0.467590	0.832940	0.832940
Cu901	Cu90	0.490590	0.808830	0.808830
Cu911	Cu91	0.532410	0.365350	0.365350
Cu921	Cu92	0.509410	0.318240	0.318240
Cu931	Cu93	0.000000	0.167060	0.634650
Cu941	Cu94	0.000000	0.191170	0.681760
Cu951	Cu95	0.000000	0.634650	0.167060
Cu961	Cu96	0.000000	0.681760	0.191170
C18251	C1825	0.591720	0.239450	0.831170
H10571	H1057	0.597300	0.225800	0.823100
H10581	H1058	0.577100	0.238300	0.815400
C18261	C1826	0.408280	0.760550	0.168830
H10591	H1059	0.402700	0.774200	0.176900
H10601	H1060	0.422900	0.761700	0.184600
C18271	C1827	0.591720	0.760550	0.352270
H10611	H1061	0.597300	0.774200	0.371500
H10621	H1062	0.577100	0.761700	0.338800
C18281	C1828	0.408280	0.239450	0.647730
H10631	H1063	0.402700	0.225800	0.628500
H10641	H1064	0.422900	0.238300	0.661200
C18291	C1829	0.831170	0.591720	0.239450
H10651	H1065	0.823100	0.597300	0.225800
H10661	H1066	0.815400	0.577100	0.238300
C18301	C1830	0.168830	0.408280	0.760550
H10671	H1067	0.176900	0.402700	0.774200
H10681	H1068	0.184600	0.422900	0.761700
C18311	C1831	0.352270	0.591720	0.760550
H10691	H1069	0.371500	0.597300	0.774200
H10701	H1070	0.338800	0.577100	0.761700
C18321	C1832	0.647730	0.408280	0.239450
H10711	H1071	0.628500	0.402700	0.225800
H10721	H1072	0.661200	0.422900	0.238300
C18331	C1833	0.239450	0.831170	0.591720
H10731	H1073	0.225800	0.823100	0.597300
H10741	H1074	0.238300	0.815400	0.577100
C18341	C1834	0.760550	0.168830	0.408280
H10751	H1075	0.774200	0.176900	0.402700
H10761	H1076	0.761700	0.184600	0.422900
C18351	C1835	0.760550	0.352270	0.591720
H10771	H1077	0.774200	0.371500	0.597300
H10781	H1078	0.761700	0.338800	0.577100
C18361	C1836	0.239450	0.647730	0.408280
H10791	H1079	0.225800	0.628500	0.402700
H10801	H1080	0.238300	0.661200	0.422900
C18371	C1837	0.239450	0.591720	0.831170
H10811	H1081	0.225800	0.597300	0.823100
H10821	H1082	0.238300	0.577100	0.815400
C18381	C1838	0.760550	0.408280	0.168830
H10831	H1083	0.774200	0.402700	0.176900
H10841	H1084	0.761700	0.422900	0.184600
C18391	C1839	0.760550	0.591720	0.352270
H10851	H1085	0.774200	0.597300	0.371500
H10861	H1086	0.761700	0.577100	0.338800
C18401	C1840	0.239450	0.408280	0.647730
H10871	H1087	0.225800	0.402700	0.628500
H10881	H1088	0.238300	0.422900	0.661200
C18411	C1841	0.408280	0.647730	0.239450
H10891	H1089	0.402700	0.628500	0.225800
H10901	H1090	0.422900	0.661200	0.238300
C18421	C1842	0.591720	0.352270	0.760550
H10911	H1091	0.597300	0.371500	0.774200
H10921	H1092	0.577100	0.338800	0.761700
C18431	C1843	0.408280	0.168830	0.760550
H10931	H1093	0.402700	0.176900	0.774200
H10941	H1094	0.422900	0.184600	0.761700
C18441	C1844	0.591720	0.831170	0.239450
H10951	H1095	0.597300	0.823100	0.225800
H10961	H1096	0.577100	0.815400	0.238300
C18451	C1845	0.352270	0.760550	0.591720
H10971	H1097	0.371500	0.774200	0.597300
H10981	H1098	0.338800	0.761700	0.577100
C18461	C1846	0.647730	0.239450	0.408280
H10991	H1099	0.628500	0.225800	0.402700
H11001	H1100	0.661200	0.238300	0.422900
C18471	C1847	0.831170	0.239450	0.591720
H11011	H1101	0.823100	0.225800	0.597300
H11021	H1102	0.815400	0.238300	0.577100
C18481	C1848	0.168830	0.760550	0.408280
H11031	H1103	0.176900	0.774200	0.402700
H11041	H1104	0.184600	0.761700	0.422900
C18491	C1849	0.601320	0.601320	0.725860
H11051	H1105	0.593000	0.593000	0.706000
C18501	C1850	0.624490	0.624490	0.783840
C18511	C1851	0.634370	0.634370	0.814260
C18521	C1852	0.614270	0.614270	0.818300
C18531	C1853	0.574040	0.574040	0.819180
H11061	H1106	0.559800	0.559800	0.819000
C18541	C1854	0.875460	0.875460	0.274140
H11071	H1107	0.887000	0.887000	0.294000
C18551	C1855	0.840650	0.840650	0.216160
C18561	C1856	0.820110	0.820110	0.185740
C18571	C1857	0.795970	0.795970	0.181700
C18581	C1858	0.754860	0.754860	0.180820
H11081	H1108	0.740800	0.740800	0.181000
C18591	C1859	0.124540	0.398680	0.000000
H11091	H1109	0.113000	0.407000	0.000000
C18601	C1860	0.159350	0.375510	0.000000
C18611	C1861	0.179890	0.365630	0.000000
C18621	C1862	0.204030	0.385730	0.000000
C18631	C1863	0.245140	0.425960	0.000000
H11101	H1110	0.259200	0.440200	0.000000
C18641	C1864	0.398680	0.124540	0.000000
H11111	H1111	0.407000	0.113000	0.000000
C18651	C1865	0.375510	0.159350	0.000000
C18661	C1866	0.365630	0.179890	0.000000
C18671	C1867	0.385730	0.204030	0.000000
C18681	C1868	0.425960	0.245140	0.000000
H11121	H1112	0.440200	0.259200	0.000000
C18691	C1869	0.725860	0.601320	0.601320
H11131	H1113	0.706000	0.593000	0.593000
C18701	C1870	0.783840	0.624490	0.624490
C18711	C1871	0.814260	0.634370	0.634370
C18721	C1872	0.818300	0.614270	0.614270
C18731	C1873	0.819180	0.574040	0.574040
H11141	H1114	0.819000	0.559800	0.559800
C18741	C1874	0.274140	0.875460	0.875460
H11151	H1115	0.294000	0.887000	0.887000
C18751	C1875	0.216160	0.840650	0.840650
C18761	C1876	0.185740	0.820110	0.820110
C18771	C1877	0.181700	0.795970	0.795970
C18781	C1878	0.180820	0.754860	0.754860
H11161	H1116	0.181000	0.740800	0.740800
C18791	C1879	0.000000	0.124540	0.398680
H11171	H1117	0.000000	0.113000	0.407000
C18801	C1880	0.000000	0.159350	0.375510
C18811	C1881	0.000000	0.179890	0.365630
C18821	C1882	0.000000	0.204030	0.385730
C18831	C1883	0.000000	0.245140	0.425960
H11181	H1118	0.000000	0.259200	0.440200
C18841	C1884	0.000000	0.398680	0.124540
H11191	H1119	0.000000	0.407000	0.113000
C18851	C1885	0.000000	0.375510	0.159350
C18861	C1886	0.000000	0.365630	0.179890
C18871	C1887	0.000000	0.385730	0.204030
C18881	C1888	0.000000	0.425960	0.245140
H11201	H1120	0.000000	0.440200	0.259200
C18891	C1889	0.601320	0.725860	0.601320
H11211	H1121	0.593000	0.706000	0.593000
C18901	C1890	0.624490	0.783840	0.624490
C18911	C1891	0.634370	0.814260	0.634370
C18921	C1892	0.614270	0.818300	0.614270
C18931	C1893	0.574040	0.819180	0.574040
H11221	H1122	0.559800	0.819000	0.559800
C18941	C1894	0.875460	0.274140	0.875460
H11231	H1123	0.887000	0.294000	0.887000
C18951	C1895	0.840650	0.216160	0.840650
C18961	C1896	0.820110	0.185740	0.820110
C18971	C1897	0.795970	0.181700	0.795970
C18981	C1898	0.754860	0.180820	0.754860
H11241	H1124	0.740800	0.181000	0.740800
C18991	C1899	0.398680	0.000000	0.124540
H11251	H1125	0.407000	0.000000	0.113000
C19001	C1900	0.375510	0.000000	0.159350
C19011	C1901	0.365630	0.000000	0.179890
C19021	C1902	0.385730	0.000000	0.204030
C19031	C1903	0.425960	0.000000	0.245140
H11261	H1126	0.440200	0.000000	0.259200
C19041	C1904	0.124540	0.000000	0.398680
H11271	H1127	0.113000	0.000000	0.407000
C19051	C1905	0.159350	0.000000	0.375510
C19061	C1906	0.179890	0.000000	0.365630
C19071	C1907	0.204030	0.000000	0.385730
C19081	C1908	0.245140	0.000000	0.425960
H11281	H1128	0.259200	0.000000	0.440200
C19091	C1909	0.124540	0.124540	0.725860
H11291	H1129	0.113000	0.113000	0.706000
C19101	C1910	0.159350	0.159350	0.783840
C19111	C1911	0.179890	0.179890	0.814260
C19121	C1912	0.204030	0.204030	0.818300
C19131	C1913	0.245140	0.245140	0.819180
H11301	H1130	0.259200	0.259200	0.819000
C19141	C1914	0.398680	0.398680	0.274140
H11311	H1131	0.407000	0.407000	0.294000
C19151	C1915	0.375510	0.375510	0.216160
C19161	C1916	0.365630	0.365630	0.185740
C19171	C1917	0.385730	0.385730	0.181700
C19181	C1918	0.425960	0.425960	0.180820
H11321	H1132	0.440200	0.440200	0.181000
C19191	C1919	0.875460	0.601320	0.000000
H11331	H1133	0.887000	0.593000	0.000000
C19201	C1920	0.840650	0.624490	0.000000
C19211	C1921	0.820110	0.634370	0.000000
C19221	C1922	0.795970	0.614270	0.000000
C19231	C1923	0.754860	0.574040	0.000000
H11341	H1134	0.740800	0.559800	0.000000
C19241	C1924	0.601320	0.875460	0.000000
H11351	H1135	0.593000	0.887000	0.000000
C19251	C1925	0.624490	0.840650	0.000000
C19261	C1926	0.634370	0.820110	0.000000
C19271	C1927	0.614270	0.795970	0.000000
C19281	C1928	0.574040	0.754860	0.000000
H11361	H1136	0.559800	0.740800	0.000000
C19291	C1929	0.875460	0.000000	0.601320
H11371	H1137	0.887000	0.000000	0.593000
C19301	C1930	0.840650	0.000000	0.624490
C19311	C1931	0.820110	0.000000	0.634370
C19321	C1932	0.795970	0.000000	0.614270
C19331	C1933	0.754860	0.000000	0.574040
H11381	H1138	0.740800	0.000000	0.559800
C19341	C1934	0.601320	0.000000	0.875460
H11391	H1139	0.593000	0.000000	0.887000
C19351	C1935	0.624490	0.000000	0.840650
C19361	C1936	0.634370	0.000000	0.820110
C19371	C1937	0.614270	0.000000	0.795970
C19381	C1938	0.574040	0.000000	0.754860
H11401	H1140	0.559800	0.000000	0.740800
C19391	C1939	0.398680	0.274140	0.398680
H11411	H1141	0.407000	0.294000	0.407000
C19401	C1940	0.375510	0.216160	0.375510
C19411	C1941	0.365630	0.185740	0.365630
C19421	C1942	0.385730	0.181700	0.385730
C19431	C1943	0.425960	0.180820	0.425960
H11421	H1142	0.440200	0.181000	0.440200
C19441	C1944	0.124540	0.725860	0.124540
H11431	H1143	0.113000	0.706000	0.113000
C19451	C1945	0.159350	0.783840	0.159350
C19461	C1946	0.179890	0.814260	0.179890
C19471	C1947	0.204030	0.818300	0.204030
C19481	C1948	0.245140	0.819180	0.245140
H11441	H1144	0.259200	0.819000	0.259200
C19491	C1949	0.000000	0.875460	0.601320
H11451	H1145	0.000000	0.887000	0.593000
C19501	C1950	0.000000	0.840650	0.624490
C19511	C1951	0.000000	0.820110	0.634370
C19521	C1952	0.000000	0.795970	0.614270
C19531	C1953	0.000000	0.754860	0.574040
H11461	H1146	0.000000	0.740800	0.559800
C19541	C1954	0.000000	0.601320	0.875460
H11471	H1147	0.000000	0.593000	0.887000
C19551	C1955	0.000000	0.624490	0.840650
C19561	C1956	0.000000	0.634370	0.820110
C19571	C1957	0.000000	0.614270	0.795970
C19581	C1958	0.000000	0.574040	0.754860
H11481	H1148	0.000000	0.559800	0.740800
C19591	C1959	0.725860	0.124540	0.124540
H11491	H1149	0.706000	0.113000	0.113000
C19601	C1960	0.783840	0.159350	0.159350
C19611	C1961	0.814260	0.179890	0.179890
C19621	C1962	0.818300	0.204030	0.204030
C19631	C1963	0.819180	0.245140	0.245140
H11501	H1150	0.819000	0.259200	0.259200
C19641	C1964	0.274140	0.398680	0.398680
H11511	H1151	0.294000	0.407000	0.407000
C19651	C1965	0.216160	0.375510	0.375510
C19661	C1966	0.185740	0.365630	0.365630
C19671	C1967	0.181700	0.385730	0.385730
C19681	C1968	0.180820	0.425960	0.425960
H11521	H1152	0.181000	0.440200	0.440200
