data_YUWKEH_clean_PM
_symmetry_space_group_name_H-M	'P1'
_cell_length_a	10.161800
_cell_length_b	21.974700
_cell_length_c	14.114000
_cell_angle_alpha	91.533000
_cell_angle_beta	90.000000
_cell_angle_gamma	90.000000
_symmetry_Int_Tables_number 1

loop_
_symmetry_equiv_pos_as_xyz
'x,y,z'

loop_
_atom_site_label
_atom_site_type_symbol
_atom_site_fract_x
_atom_site_fract_y
_atom_site_fract_z
Nd11	Nd1	0.559490	0.740560	0.232350
Nd21	Nd2	0.749620	0.750720	0.974470
Nd31	Nd3	0.059490	0.259440	0.267650
Nd41	Nd4	0.249620	0.249280	0.525530
Nd51	Nd5	0.440510	0.259440	0.767650
Nd61	Nd6	0.250380	0.249280	0.025530
Nd71	Nd7	0.940510	0.740560	0.732350
Nd81	Nd8	0.750380	0.750720	0.474470
H11	H1	0.877500	0.659100	0.277200
H21	H2	0.012100	0.685400	0.241700
H31	H3	0.796700	0.561100	0.188100
H41	H4	0.858200	0.465900	0.132400
H51	H5	0.232300	0.518700	0.128600
H61	H6	0.173300	0.614200	0.183500
H71	H7	0.038200	0.411300	0.029300
H81	H8	0.182900	0.424100	0.061700
H91	H9	0.684100	0.915500	0.053300
H101	H10	0.541800	0.905300	0.013900
H111	H11	0.726400	0.007100	0.135300
H121	H12	0.660400	0.097200	0.208400
H131	H13	0.287700	0.043500	0.188800
H141	H14	0.353200	0.953600	0.116000
H151	H15	0.354000	0.129600	0.301400
H161	H16	0.494100	0.157900	0.287400
H171	H17	0.300400	0.622000	0.013800
H181	H18	0.363700	0.626500	0.912700
H191	H19	0.491600	0.567200	0.128200
H201	H20	0.419200	0.527800	0.854600
H211	H21	0.412300	0.884400	0.353700
H221	H22	0.348500	0.867400	0.450600
H231	H23	0.535100	0.977600	0.341100
H241	H24	0.404100	0.929000	0.594900
H251	H25	0.377500	0.340900	0.222800
H261	H26	0.512100	0.314600	0.258300
H271	H27	0.296700	0.438900	0.311900
H281	H28	0.358200	0.534100	0.367600
H291	H29	0.732300	0.481300	0.371400
H301	H30	0.673300	0.385800	0.316500
H311	H31	0.538200	0.588700	0.470700
H321	H32	0.682900	0.575900	0.438300
H331	H33	0.184100	0.084500	0.446700
H341	H34	0.041800	0.094700	0.486100
H351	H35	0.226400	0.992900	0.364700
H361	H36	0.160400	0.902800	0.291600
H371	H37	0.787700	0.956500	0.311200
H381	H38	0.853200	0.046400	0.384000
H391	H39	0.854000	0.870400	0.198600
H401	H40	0.994100	0.842100	0.212600
H411	H41	0.800400	0.378000	0.486200
H421	H42	0.863700	0.373500	0.587300
H431	H43	0.991600	0.432800	0.371800
H441	H44	0.919200	0.472200	0.645400
H451	H45	0.912300	0.115600	0.146300
H461	H46	0.848500	0.132600	0.049400
H471	H47	0.035100	0.022400	0.158900
H481	H48	0.904100	0.071000	0.905100
H491	H49	0.122500	0.340900	0.722800
H501	H50	0.987900	0.314600	0.758300
H511	H51	0.203300	0.438900	0.811900
H521	H52	0.141800	0.534100	0.867600
H531	H53	0.767700	0.481300	0.871400
H541	H54	0.826700	0.385800	0.816500
H551	H55	0.961800	0.588700	0.970700
H561	H56	0.817100	0.575900	0.938300
H571	H57	0.315900	0.084500	0.946700
H581	H58	0.458200	0.094700	0.986100
H591	H59	0.273600	0.992900	0.864700
H601	H60	0.339600	0.902800	0.791600
H611	H61	0.712300	0.956500	0.811200
H621	H62	0.646800	0.046400	0.884000
H631	H63	0.646000	0.870400	0.698600
H641	H64	0.505900	0.842100	0.712600
H651	H65	0.699600	0.378000	0.986200
H661	H66	0.636300	0.373500	0.087300
H671	H67	0.508400	0.432800	0.871800
H681	H68	0.580800	0.472200	0.145400
H691	H69	0.587700	0.115600	0.646300
H701	H70	0.651500	0.132600	0.549400
H711	H71	0.464900	0.022400	0.658900
H721	H72	0.595900	0.071000	0.405100
H731	H73	0.622500	0.659100	0.777200
H741	H74	0.487900	0.685400	0.741700
H751	H75	0.703300	0.561100	0.688100
H761	H76	0.641800	0.465900	0.632400
H771	H77	0.267700	0.518700	0.628600
H781	H78	0.326700	0.614200	0.683500
H791	H79	0.461800	0.411300	0.529300
H801	H80	0.317100	0.424100	0.561700
H811	H81	0.815900	0.915500	0.553300
H821	H82	0.958200	0.905300	0.513900
H831	H83	0.773600	0.007100	0.635300
H841	H84	0.839600	0.097200	0.708400
H851	H85	0.212300	0.043500	0.688800
H861	H86	0.146800	0.953600	0.616000
H871	H87	0.146000	0.129600	0.801400
H881	H88	0.005900	0.157900	0.787400
H891	H89	0.199600	0.622000	0.513800
H901	H90	0.136300	0.626500	0.412700
H911	H91	0.008400	0.567200	0.628200
H921	H92	0.080800	0.527800	0.354600
H931	H93	0.087700	0.884400	0.853700
H941	H94	0.151500	0.867400	0.950600
H951	H95	0.964900	0.977600	0.841100
H961	H96	0.095900	0.929000	0.094900
C11	C1	0.865100	0.692460	0.143400
C21	C2	0.935400	0.661730	0.222900
C31	C3	0.977300	0.598590	0.190300
C41	C4	0.884900	0.553070	0.175600
C51	C5	0.921900	0.495730	0.142300
C61	C6	0.051500	0.482430	0.124000
C71	C7	0.144100	0.527270	0.140100
C81	C8	0.108900	0.584720	0.172900
C91	C9	0.092900	0.420990	0.083900
C101	C10	0.085100	0.368810	0.150700
C111	C11	0.579800	0.854470	0.129400
C121	C12	0.592600	0.911190	0.071600
C131	C13	0.548900	0.970060	0.119500
C141	C14	0.637300	0.013790	0.146500
C151	C15	0.597700	0.068250	0.190400
C161	C16	0.466900	0.079580	0.207200
C171	C17	0.376900	0.036260	0.178600
C181	C18	0.416100	0.982120	0.135100
C191	C19	0.420600	0.138610	0.254600
C201	C20	0.364800	0.181980	0.184700
C211	C21	0.473600	0.670210	0.016000
C221	C22	0.382800	0.620190	0.979100
C231	C23	0.444800	0.558030	0.989900
C241	C24	0.494600	0.540210	0.076300
C251	C25	0.451500	0.516740	0.913400
C261	C26	0.535100	0.835150	0.435700
C271	C27	0.428900	0.881330	0.421100
C281	C28	0.463300	0.943250	0.461400
C291	C29	0.520700	0.986330	0.405200
C301	C30	0.442900	0.957530	0.556300
C311	C31	0.365100	0.307540	0.356600
C321	C32	0.435400	0.338270	0.277100
C331	C33	0.477300	0.401410	0.309700
C341	C34	0.384900	0.446930	0.324400
C351	C35	0.421900	0.504270	0.357700
C361	C36	0.551500	0.517570	0.376000
C371	C37	0.644100	0.472730	0.359900
C381	C38	0.608900	0.415280	0.327100
C391	C39	0.592900	0.579010	0.416100
C401	C40	0.585100	0.631190	0.349300
C411	C41	0.079800	0.145530	0.370600
C421	C42	0.092600	0.088810	0.428400
C431	C43	0.048900	0.029940	0.380500
C441	C44	0.137300	0.986210	0.353500
C451	C45	0.097700	0.931750	0.309600
C461	C46	0.966900	0.920420	0.292800
C471	C47	0.876900	0.963740	0.321400
C481	C48	0.916100	0.017880	0.364900
C491	C49	0.920600	0.861390	0.245400
C501	C50	0.864800	0.818020	0.315300
C511	C51	0.973600	0.329790	0.484000
C521	C52	0.882800	0.379810	0.520900
C531	C53	0.944800	0.441970	0.510100
C541	C54	0.994600	0.459790	0.423700
C551	C55	0.951500	0.483260	0.586600
C561	C56	0.035100	0.164850	0.064300
C571	C57	0.928900	0.118670	0.078900
C581	C58	0.963300	0.056750	0.038600
C591	C59	0.020700	0.013670	0.094800
C601	C60	0.942900	0.042470	0.943700
C611	C61	0.134900	0.307540	0.856600
C621	C62	0.064600	0.338270	0.777100
C631	C63	0.022700	0.401410	0.809700
C641	C64	0.115100	0.446930	0.824400
C651	C65	0.078100	0.504270	0.857700
C661	C66	0.948500	0.517570	0.876000
C671	C67	0.855900	0.472730	0.859900
C681	C68	0.891100	0.415280	0.827100
C691	C69	0.907100	0.579010	0.916100
C701	C70	0.914900	0.631190	0.849300
C711	C71	0.420200	0.145530	0.870600
C721	C72	0.407400	0.088810	0.928400
C731	C73	0.451100	0.029940	0.880500
C741	C74	0.362700	0.986210	0.853500
C751	C75	0.402300	0.931750	0.809600
C761	C76	0.533100	0.920420	0.792800
C771	C77	0.623100	0.963740	0.821400
C781	C78	0.583900	0.017880	0.864900
C791	C79	0.579400	0.861390	0.745400
C801	C80	0.635200	0.818020	0.815300
C811	C81	0.526400	0.329790	0.984000
C821	C82	0.617200	0.379810	0.020900
C831	C83	0.555200	0.441970	0.010100
C841	C84	0.505400	0.459790	0.923700
C851	C85	0.548500	0.483260	0.086600
C861	C86	0.464900	0.164850	0.564300
C871	C87	0.571100	0.118670	0.578900
C881	C88	0.536700	0.056750	0.538600
C891	C89	0.479300	0.013670	0.594800
C901	C90	0.557100	0.042470	0.443700
C911	C91	0.634900	0.692460	0.643400
C921	C92	0.564600	0.661730	0.722900
C931	C93	0.522700	0.598590	0.690300
C941	C94	0.615100	0.553070	0.675600
C951	C95	0.578100	0.495730	0.642300
C961	C96	0.448500	0.482430	0.624000
C971	C97	0.355900	0.527270	0.640100
C981	C98	0.391100	0.584720	0.672900
C991	C99	0.407100	0.420990	0.583900
C1001	C100	0.414900	0.368810	0.650700
C1011	C101	0.920200	0.854470	0.629400
C1021	C102	0.907400	0.911190	0.571600
C1031	C103	0.951100	0.970060	0.619500
C1041	C104	0.862700	0.013790	0.646500
C1051	C105	0.902300	0.068250	0.690400
C1061	C106	0.033100	0.079580	0.707200
C1071	C107	0.123100	0.036260	0.678600
C1081	C108	0.083900	0.982120	0.635100
C1091	C109	0.079400	0.138610	0.754600
C1101	C110	0.135200	0.181980	0.684700
C1111	C111	0.026400	0.670210	0.516000
C1121	C112	0.117200	0.620190	0.479100
C1131	C113	0.055200	0.558030	0.489900
C1141	C114	0.005400	0.540210	0.576300
C1151	C115	0.048500	0.516740	0.413400
C1161	C116	0.964900	0.835150	0.935700
C1171	C117	0.071100	0.881330	0.921100
C1181	C118	0.036700	0.943250	0.961400
C1191	C119	0.979300	0.986330	0.905200
C1201	C120	0.057100	0.957530	0.056300
O11	O1	0.740700	0.691980	0.138360
O21	O2	0.930400	0.716760	0.079250
O31	O3	0.163300	0.324610	0.135160
O41	O4	0.006900	0.367090	0.217230
O51	O5	0.633000	0.805440	0.097730
O61	O6	0.519800	0.853540	0.205040
O71	O7	0.265900	0.214520	0.204860
O81	O8	0.419800	0.187030	0.105730
O91	O9	0.567000	0.684580	0.964580
O101	O10	0.450500	0.693660	0.096040
O111	O11	0.630900	0.846760	0.487840
O121	O12	0.526500	0.782970	0.393400
O131	O13	0.240700	0.308020	0.361640
O141	O14	0.430400	0.283240	0.420750
O151	O15	0.663300	0.675390	0.364840
O161	O16	0.506900	0.632910	0.282770
O171	O17	0.133000	0.194560	0.402270
O181	O18	0.019800	0.146460	0.294960
O191	O19	0.765900	0.785480	0.295140
O201	O20	0.919800	0.812970	0.394270
O211	O21	0.067000	0.315420	0.535420
O221	O22	0.950500	0.306340	0.403960
O231	O23	0.130900	0.153240	0.012160
O241	O24	0.026500	0.217030	0.106600
O251	O25	0.259300	0.308020	0.861640
O261	O26	0.069600	0.283240	0.920750
O271	O27	0.836700	0.675390	0.864840
O281	O28	0.993100	0.632910	0.782770
O291	O29	0.367000	0.194560	0.902270
O301	O30	0.480200	0.146460	0.794960
O311	O31	0.734100	0.785480	0.795140
O321	O32	0.580200	0.812970	0.894270
O331	O33	0.433000	0.315420	0.035420
O341	O34	0.549500	0.306340	0.903960
O351	O35	0.369100	0.153240	0.512160
O361	O36	0.473500	0.217030	0.606600
O371	O37	0.759300	0.691980	0.638360
O381	O38	0.569600	0.716760	0.579250
O391	O39	0.336700	0.324610	0.635160
O401	O40	0.493100	0.367090	0.717230
O411	O41	0.867000	0.805440	0.597730
O421	O42	0.980200	0.853540	0.705040
O431	O43	0.234100	0.214520	0.704860
O441	O44	0.080200	0.187030	0.605730
O451	O45	0.933000	0.684580	0.464580
O461	O46	0.049500	0.693660	0.596040
O471	O47	0.869100	0.846760	0.987840
O481	O48	0.973500	0.782970	0.893400
