data_YUWKIL_clean_PM
_symmetry_space_group_name_H-M	'P1'
_cell_length_a	10.058000
_cell_length_b	21.860000
_cell_length_c	13.989000
_cell_angle_alpha	91.481000
_cell_angle_beta	90.000000
_cell_angle_gamma	90.000000
_symmetry_Int_Tables_number 1

loop_
_symmetry_equiv_pos_as_xyz
'x,y,z'

loop_
_atom_site_label
_atom_site_type_symbol
_atom_site_fract_x
_atom_site_fract_y
_atom_site_fract_z
Sm11	Sm1	0.438400	0.759710	0.768240
Sm21	Sm2	0.750390	0.251030	0.473480
Sm31	Sm3	0.938400	0.240290	0.731760
Sm41	Sm4	0.250390	0.748970	0.026520
Sm51	Sm5	0.561600	0.240290	0.231760
Sm61	Sm6	0.249610	0.748970	0.526520
Sm71	Sm7	0.061600	0.759710	0.268240
Sm81	Sm8	0.749610	0.251030	0.973480
H11	H1	0.316600	0.921900	0.560000
H21	H2	0.463800	0.909500	0.529500
H31	H3	0.644100	0.966800	0.635500
H41	H4	0.704700	0.062100	0.685200
H51	H5	0.324600	0.114500	0.682800
H61	H6	0.267200	0.017100	0.625900
H71	H7	0.483800	0.185100	0.737100
H81	H8	0.618800	0.159800	0.776000
H91	H9	0.002600	0.658300	0.787300
H101	H10	0.143500	0.629900	0.804900
H111	H11	0.837700	0.595900	0.708500
H121	H12	0.772300	0.505800	0.634200
H131	H13	0.146900	0.454300	0.617100
H141	H14	0.212900	0.544000	0.688200
H151	H15	0.813100	0.414500	0.554100
H161	H16	0.955700	0.404700	0.512300
H171	H17	0.586400	0.616600	0.648900
H181	H18	0.651600	0.634300	0.551500
H191	H19	0.463200	0.524000	0.660100
H201	H20	0.594800	0.572500	0.405600
H211	H21	0.700200	0.877500	0.988500
H221	H22	0.633700	0.872400	0.089500
H231	H23	0.503600	0.931600	0.872200
H241	H24	0.582300	0.972200	0.145800
H251	H25	0.816600	0.078100	0.940000
H261	H26	0.963800	0.090500	0.970500
H271	H27	0.144100	0.033200	0.864500
H281	H28	0.204700	0.937900	0.814800
H291	H29	0.824600	0.885500	0.817200
H301	H30	0.767200	0.982900	0.874100
H311	H31	0.983800	0.814900	0.762900
H321	H32	0.118800	0.840200	0.724000
H331	H33	0.502600	0.341700	0.712700
H341	H34	0.643500	0.370100	0.695100
H351	H35	0.337700	0.404100	0.791500
H361	H36	0.272300	0.494200	0.865800
H371	H37	0.646900	0.545700	0.882900
H381	H38	0.712900	0.456000	0.811800
H391	H39	0.313100	0.585500	0.945900
H401	H40	0.455700	0.595300	0.987700
H411	H41	0.086400	0.383400	0.851100
H421	H42	0.151600	0.365700	0.948500
H431	H43	0.963200	0.476000	0.839900
H441	H44	0.094800	0.427500	0.094400
H451	H45	0.200200	0.122500	0.511500
H461	H46	0.133700	0.127600	0.410500
H471	H47	0.003600	0.068400	0.627800
H481	H48	0.082300	0.027800	0.354200
H491	H49	0.683400	0.078100	0.440000
H501	H50	0.536200	0.090500	0.470500
H511	H51	0.355900	0.033200	0.364500
H521	H52	0.295300	0.937900	0.314800
H531	H53	0.675400	0.885500	0.317200
H541	H54	0.732800	0.982900	0.374100
H551	H55	0.516200	0.814900	0.262900
H561	H56	0.381200	0.840200	0.224000
H571	H57	0.997400	0.341700	0.212700
H581	H58	0.856500	0.370100	0.195100
H591	H59	0.162300	0.404100	0.291500
H601	H60	0.227700	0.494200	0.365800
H611	H61	0.853100	0.545700	0.382900
H621	H62	0.787100	0.456000	0.311800
H631	H63	0.186900	0.585500	0.445900
H641	H64	0.044300	0.595300	0.487700
H651	H65	0.413600	0.383400	0.351100
H661	H66	0.348400	0.365700	0.448500
H671	H67	0.536800	0.476000	0.339900
H681	H68	0.405200	0.427500	0.594400
H691	H69	0.299800	0.122500	0.011500
H701	H70	0.366300	0.127600	0.910500
H711	H71	0.496400	0.068400	0.127800
H721	H72	0.417700	0.027800	0.854200
H731	H73	0.183400	0.921900	0.060000
H741	H74	0.036200	0.909500	0.029500
H751	H75	0.855900	0.966800	0.135500
H761	H76	0.795300	0.062100	0.185200
H771	H77	0.175400	0.114500	0.182800
H781	H78	0.232800	0.017100	0.125900
H791	H79	0.016200	0.185100	0.237100
H801	H80	0.881200	0.159800	0.276000
H811	H81	0.497400	0.658300	0.287300
H821	H82	0.356500	0.629900	0.304900
H831	H83	0.662300	0.595900	0.208500
H841	H84	0.727700	0.505800	0.134200
H851	H85	0.353100	0.454300	0.117100
H861	H86	0.287100	0.544000	0.188200
H871	H87	0.686900	0.414500	0.054100
H881	H88	0.544300	0.404700	0.012300
H891	H89	0.913600	0.616600	0.148900
H901	H90	0.848400	0.634300	0.051500
H911	H91	0.036800	0.524000	0.160100
H921	H92	0.905200	0.572500	0.905600
H931	H93	0.799800	0.877500	0.488500
H941	H94	0.866300	0.872400	0.589500
H951	H95	0.996400	0.931600	0.372200
H961	H96	0.917700	0.972200	0.645800
C11	C1	0.413600	0.868600	0.649700
C21	C2	0.407000	0.919300	0.583800
C31	C3	0.446100	0.981100	0.623300
C41	C4	0.578800	0.996600	0.643600
C51	C5	0.615400	0.053500	0.674500
C61	C6	0.522100	0.098500	0.690100
C71	C7	0.390000	0.085000	0.672500
C81	C8	0.356100	0.025700	0.638500
C91	C9	0.562300	0.161500	0.720000
C101	C10	0.634300	0.192300	0.642600
C111	C11	0.138000	0.681900	0.685200
C121	C12	0.078100	0.638700	0.756200
C131	C13	0.033000	0.578900	0.707900
C141	C14	0.901400	0.567100	0.690400
C151	C15	0.862100	0.512700	0.646100
C161	C16	0.951200	0.469700	0.619800
C171	C17	0.083000	0.482900	0.636000
C181	C18	0.122800	0.536500	0.678900
C191	C19	0.905900	0.410100	0.571300
C201	C20	0.919700	0.353100	0.626700
C211	C21	0.462400	0.663900	0.564900
C221	C22	0.570600	0.619700	0.580800
C231	C23	0.536300	0.555900	0.538200
C241	C24	0.478800	0.514600	0.595900
C251	C25	0.557000	0.543200	0.444100
C261	C26	0.526300	0.830600	0.984000
C271	C27	0.616200	0.879200	0.022500
C281	C28	0.554100	0.942200	0.011700
C291	C29	0.502600	0.959300	0.923900
C301	C30	0.549500	0.983300	0.086600
C311	C31	0.913600	0.131400	0.850300
C321	C32	0.907000	0.080700	0.916200
C331	C33	0.946100	0.018900	0.876700
C341	C34	0.078800	0.003400	0.856400
C351	C35	0.115400	0.946500	0.825500
C361	C36	0.022100	0.901500	0.809900
C371	C37	0.890000	0.915000	0.827500
C381	C38	0.856100	0.974300	0.861500
C391	C39	0.062300	0.838500	0.780000
C401	C40	0.134300	0.807700	0.857400
C411	C41	0.638000	0.318100	0.814800
C421	C42	0.578100	0.361300	0.743800
C431	C43	0.533000	0.421100	0.792100
C441	C44	0.401400	0.432900	0.809600
C451	C45	0.362100	0.487300	0.853900
C461	C46	0.451200	0.530300	0.880200
C471	C47	0.583000	0.517100	0.864000
C481	C48	0.622800	0.463500	0.821100
C491	C49	0.405900	0.589900	0.928700
C501	C50	0.419700	0.646900	0.873300
C511	C51	0.962400	0.336100	0.935100
C521	C52	0.070600	0.380300	0.919200
C531	C53	0.036300	0.444100	0.961800
C541	C54	0.978800	0.485400	0.904100
C551	C55	0.057000	0.456800	0.055900
C561	C56	0.026300	0.169400	0.516000
C571	C57	0.116200	0.120800	0.477500
C581	C58	0.054100	0.057800	0.488300
C591	C59	0.002600	0.040700	0.576100
C601	C60	0.049500	0.016700	0.413400
C611	C61	0.586400	0.131400	0.350300
C621	C62	0.593000	0.080700	0.416200
C631	C63	0.553900	0.018900	0.376700
C641	C64	0.421200	0.003400	0.356400
C651	C65	0.384600	0.946500	0.325500
C661	C66	0.477900	0.901500	0.309900
C671	C67	0.610000	0.915000	0.327500
C681	C68	0.643900	0.974300	0.361500
C691	C69	0.437700	0.838500	0.280000
C701	C70	0.365700	0.807700	0.357400
C711	C71	0.862000	0.318100	0.314800
C721	C72	0.921900	0.361300	0.243800
C731	C73	0.967000	0.421100	0.292100
C741	C74	0.098600	0.432900	0.309600
C751	C75	0.137900	0.487300	0.353900
C761	C76	0.048800	0.530300	0.380200
C771	C77	0.917000	0.517100	0.364000
C781	C78	0.877200	0.463500	0.321100
C791	C79	0.094100	0.589900	0.428700
C801	C80	0.080300	0.646900	0.373300
C811	C81	0.537600	0.336100	0.435100
C821	C82	0.429400	0.380300	0.419200
C831	C83	0.463700	0.444100	0.461800
C841	C84	0.521200	0.485400	0.404100
C851	C85	0.443000	0.456800	0.555900
C861	C86	0.473700	0.169400	0.016000
C871	C87	0.383800	0.120800	0.977500
C881	C88	0.445900	0.057800	0.988300
C891	C89	0.497400	0.040700	0.076100
C901	C90	0.450500	0.016700	0.913400
C911	C91	0.086400	0.868600	0.149700
C921	C92	0.093000	0.919300	0.083800
C931	C93	0.053900	0.981100	0.123300
C941	C94	0.921200	0.996600	0.143600
C951	C95	0.884600	0.053500	0.174500
C961	C96	0.977900	0.098500	0.190100
C971	C97	0.110000	0.085000	0.172500
C981	C98	0.143900	0.025700	0.138500
C991	C99	0.937700	0.161500	0.220000
C1001	C100	0.865700	0.192300	0.142600
C1011	C101	0.362000	0.681900	0.185200
C1021	C102	0.421900	0.638700	0.256200
C1031	C103	0.467000	0.578900	0.207900
C1041	C104	0.598600	0.567100	0.190400
C1051	C105	0.637900	0.512700	0.146100
C1061	C106	0.548800	0.469700	0.119800
C1071	C107	0.417000	0.482900	0.136000
C1081	C108	0.377200	0.536500	0.178900
C1091	C109	0.594100	0.410100	0.071300
C1101	C110	0.580300	0.353100	0.126700
C1111	C111	0.037600	0.663900	0.064900
C1121	C112	0.929400	0.619700	0.080800
C1131	C113	0.963700	0.555900	0.038200
C1141	C114	0.021200	0.514600	0.095900
C1151	C115	0.943000	0.543200	0.944100
C1161	C116	0.973700	0.830600	0.484000
C1171	C117	0.883800	0.879200	0.522500
C1181	C118	0.945900	0.942200	0.511700
C1191	C119	0.997400	0.959300	0.423900
C1201	C120	0.950500	0.983300	0.586600
O11	O1	0.333400	0.825100	0.635700
O21	O2	0.493100	0.864900	0.717100
O31	O3	0.572000	0.217100	0.576600
O41	O4	0.759700	0.191600	0.638200
O51	O5	0.234600	0.714900	0.706800
O61	O6	0.082100	0.687700	0.604500
O71	O7	0.866900	0.304000	0.597100
O81	O8	0.981500	0.350600	0.704600
O91	O9	0.472900	0.717700	0.607900
O101	O10	0.368400	0.654100	0.513300
O111	O11	0.546900	0.807100	0.903500
O121	O12	0.431800	0.814500	0.036400
O131	O13	0.833400	0.174900	0.864300
O141	O14	0.993100	0.135100	0.782900
O151	O15	0.072000	0.782900	0.923400
O161	O16	0.259700	0.808400	0.861800
O171	O17	0.734600	0.285100	0.793200
O181	O18	0.582100	0.312300	0.895500
O191	O19	0.366900	0.696000	0.902900
O201	O20	0.481500	0.649400	0.795400
O211	O21	0.972900	0.282300	0.892100
O221	O22	0.868400	0.345900	0.986700
O231	O23	0.046900	0.192900	0.596500
O241	O24	0.931800	0.185500	0.463600
O251	O25	0.666600	0.174900	0.364300
O261	O26	0.506900	0.135100	0.282900
O271	O27	0.428000	0.782900	0.423400
O281	O28	0.240300	0.808400	0.361800
O291	O29	0.765400	0.285100	0.293200
O301	O30	0.917900	0.312300	0.395500
O311	O31	0.133100	0.696000	0.402900
O321	O32	0.018500	0.649400	0.295400
O331	O33	0.527100	0.282300	0.392100
O341	O34	0.631600	0.345900	0.486700
O351	O35	0.453100	0.192900	0.096500
O361	O36	0.568200	0.185500	0.963600
O371	O37	0.166600	0.825100	0.135700
O381	O38	0.006900	0.864900	0.217100
O391	O39	0.928000	0.217100	0.076600
O401	O40	0.740300	0.191600	0.138200
O411	O41	0.265400	0.714900	0.206800
O421	O42	0.417900	0.687700	0.104500
O431	O43	0.633100	0.304000	0.097100
O441	O44	0.518500	0.350600	0.204600
O451	O45	0.027100	0.717700	0.107900
O461	O46	0.131600	0.654100	0.013300
O471	O47	0.953100	0.807100	0.403500
O481	O48	0.068200	0.814500	0.536400
