data_YUXLIN_clean_PM
_symmetry_space_group_name_H-M	'P1'
_cell_length_a	22.993000
_cell_length_b	22.993000
_cell_length_c	71.297000
_cell_angle_alpha	90.000000
_cell_angle_beta	90.000000
_cell_angle_gamma	120.000000
_symmetry_Int_Tables_number 1

loop_
_symmetry_equiv_pos_as_xyz
'x,y,z'

loop_
_atom_site_label
_atom_site_type_symbol
_atom_site_fract_x
_atom_site_fract_y
_atom_site_fract_z
Ag11	Ag1	0.026200	0.511380	0.500990
O11	O1	0.255500	0.623100	0.426510
C11	C1	0.207600	0.637000	0.427700
O21	O2	0.299000	0.585900	0.394050
C21	C2	0.325700	0.524400	0.414740
H11	H1	0.314600	0.479800	0.417700
C31	C3	0.300600	0.532100	0.397430
N11	N1	0.088900	0.556600	0.476410
C41	C4	0.157300	0.578900	0.476760
H21	H2	0.177700	0.575400	0.488000
C51	C5	0.195900	0.606500	0.460730
H31	H3	0.242700	0.621800	0.461000
C61	C6	0.166000	0.611700	0.444350
C71	C7	0.491600	0.902400	0.443990
H41	H4	0.515500	0.922800	0.432800
C81	C8	0.502700	0.941000	0.460020
H51	H5	0.534200	0.987800	0.459800
N21	N2	0.176900	0.797200	0.356140
C91	C9	0.221900	0.775200	0.352150
H61	H6	0.241000	0.781600	0.340000
C101	C10	0.239100	0.743900	0.365980
H71	H7	0.269900	0.728800	0.363300
C111	C11	0.211200	0.734500	0.383790
C121	C12	0.166200	0.756500	0.387780
H81	H8	0.147100	0.750100	0.400000
C131	C13	0.149000	0.787800	0.373960
H91	H9	0.118200	0.802900	0.376700
Ag21	Ag2	0.692870	0.844710	0.834320
O31	O3	0.922170	0.956430	0.759840
C141	C14	0.874270	0.970330	0.761030
O41	O4	0.965670	0.919230	0.727380
C151	C15	0.992370	0.857730	0.748070
H101	H10	0.981270	0.813130	0.751030
C161	C16	0.967270	0.865430	0.730760
N31	N3	0.755570	0.889930	0.809740
C171	C17	0.823970	0.912230	0.810090
H111	H11	0.844370	0.908730	0.821330
C181	C18	0.862570	0.939830	0.794060
H121	H12	0.909370	0.955130	0.794330
C191	C19	0.832670	0.945030	0.777680
C201	C20	0.158270	0.235730	0.777320
H131	H13	0.182170	0.256130	0.766130
C211	C21	0.169370	0.274330	0.793350
H141	H14	0.200870	0.321130	0.793130
N41	N4	0.843570	0.130530	0.689470
C221	C22	0.888570	0.108530	0.685480
H151	H15	0.907670	0.114930	0.673330
C231	C23	0.905770	0.077230	0.699310
H161	H16	0.936570	0.062130	0.696630
C241	C24	0.877870	0.067830	0.717120
C251	C25	0.832870	0.089830	0.721110
H171	H17	0.813770	0.083430	0.733330
C261	C26	0.815670	0.121130	0.707290
H181	H18	0.784870	0.136230	0.710030
Ag31	Ag3	0.359530	0.178050	0.167660
O51	O5	0.588830	0.289770	0.093180
C271	C27	0.540930	0.303670	0.094370
O61	O6	0.632330	0.252570	0.060720
C281	C28	0.659030	0.191070	0.081410
H191	H19	0.647930	0.146470	0.084370
C291	C29	0.633930	0.198770	0.064100
N51	N5	0.422230	0.223270	0.143080
C301	C30	0.490630	0.245570	0.143430
H201	H20	0.511030	0.242070	0.154670
C311	C31	0.529230	0.273170	0.127400
H211	H21	0.576030	0.288470	0.127670
C321	C32	0.499330	0.278370	0.111020
C331	C33	0.824930	0.569070	0.110660
H221	H22	0.848830	0.589470	0.099470
C341	C34	0.836030	0.607670	0.126690
H231	H23	0.867530	0.654470	0.126470
N61	N6	0.510230	0.463870	0.022810
C351	C35	0.555230	0.441870	0.018820
H241	H24	0.574330	0.448270	0.006670
C361	C36	0.572430	0.410570	0.032650
H251	H25	0.603230	0.395470	0.029970
C371	C37	0.544530	0.401170	0.050460
C381	C38	0.499530	0.423170	0.054450
H261	H26	0.480430	0.416770	0.066670
C391	C39	0.482330	0.454470	0.040630
H271	H27	0.451530	0.469570	0.043370
Ag41	Ag4	0.488620	0.514820	0.500990
O71	O7	0.376900	0.632400	0.426510
C401	C40	0.363000	0.570600	0.427700
O81	O8	0.414100	0.713100	0.394050
C411	C41	0.475600	0.801300	0.414740
H281	H28	0.520200	0.834800	0.417700
C421	C42	0.467900	0.768500	0.397430
N71	N7	0.443400	0.532300	0.476410
C431	C43	0.421100	0.578400	0.476760
H291	H29	0.424600	0.602300	0.488000
C441	C44	0.393500	0.589400	0.460730
H301	H30	0.378200	0.620900	0.461000
C451	C45	0.388300	0.554300	0.444350
C461	C46	0.097600	0.589200	0.443990
H311	H31	0.077200	0.592700	0.432800
C471	C47	0.059000	0.561700	0.460020
H321	H32	0.012200	0.546400	0.459800
N81	N8	0.202800	0.379700	0.356140
C481	C48	0.224800	0.446700	0.352150
H331	H33	0.218400	0.459400	0.340000
C491	C49	0.256100	0.495200	0.365980
H341	H34	0.271200	0.541100	0.363300
C501	C50	0.265500	0.476700	0.383790
C511	C51	0.243500	0.409700	0.387780
H351	H35	0.249900	0.397000	0.400000
C521	C52	0.212200	0.361200	0.373960
H361	H36	0.197100	0.315300	0.376700
Ag51	Ag5	0.155290	0.848150	0.834320
O91	O9	0.043570	0.965730	0.759840
C531	C53	0.029670	0.903930	0.761030
O101	O10	0.080770	0.046430	0.727380
C541	C54	0.142270	0.134630	0.748070
H371	H37	0.186870	0.168130	0.751030
C551	C55	0.134570	0.101830	0.730760
N91	N9	0.110070	0.865630	0.809740
C561	C56	0.087770	0.911730	0.810090
H381	H38	0.091270	0.935630	0.821330
C571	C57	0.060170	0.922730	0.794060
H391	H39	0.044870	0.954230	0.794330
C581	C58	0.054970	0.887630	0.777680
C591	C59	0.764270	0.922530	0.777320
H401	H40	0.743870	0.926030	0.766130
C601	C60	0.725670	0.895030	0.793350
H411	H41	0.678870	0.879730	0.793130
N101	N10	0.869470	0.713030	0.689470
C611	C61	0.891470	0.780030	0.685480
H421	H42	0.885070	0.792730	0.673330
C621	C62	0.922770	0.828530	0.699310
H431	H43	0.937870	0.874430	0.696630
C631	C63	0.932170	0.810030	0.717120
C641	C64	0.910170	0.743030	0.721110
H441	H44	0.916570	0.730330	0.733330
C651	C65	0.878870	0.694530	0.707290
H451	H45	0.863770	0.648630	0.710030
Ag61	Ag6	0.821950	0.181490	0.167660
O111	O11	0.710230	0.299070	0.093180
C661	C66	0.696330	0.237270	0.094370
O121	O12	0.747430	0.379770	0.060720
C671	C67	0.808930	0.467970	0.081410
H461	H46	0.853530	0.501470	0.084370
C681	C68	0.801230	0.435170	0.064100
N111	N11	0.776730	0.198970	0.143080
C691	C69	0.754430	0.245070	0.143430
H471	H47	0.757930	0.268970	0.154670
C701	C70	0.726830	0.256070	0.127400
H481	H48	0.711530	0.287570	0.127670
C711	C71	0.721630	0.220970	0.111020
C721	C72	0.430930	0.255870	0.110660
H491	H49	0.410530	0.259370	0.099470
C731	C73	0.392330	0.228370	0.126690
H501	H50	0.345530	0.213070	0.126470
N121	N12	0.536130	0.046370	0.022810
C741	C74	0.558130	0.113370	0.018820
H511	H51	0.551730	0.126070	0.006670
C751	C75	0.589430	0.161870	0.032650
H521	H52	0.604530	0.207770	0.029970
C761	C76	0.598830	0.143370	0.050460
C771	C77	0.576830	0.076370	0.054450
H531	H53	0.583230	0.063670	0.066670
C781	C78	0.545530	0.027870	0.040630
H541	H54	0.530430	0.981970	0.043370
Ag71	Ag7	0.485180	0.973800	0.500990
O131	O13	0.367600	0.744500	0.426510
C791	C79	0.429400	0.792400	0.427700
O141	O14	0.286900	0.701000	0.394050
C801	C80	0.198700	0.674300	0.414740
H551	H55	0.165200	0.685400	0.417700
C811	C81	0.231500	0.699400	0.397430
N131	N13	0.467700	0.911100	0.476410
C821	C82	0.421600	0.842700	0.476760
H561	H56	0.397700	0.822300	0.488000
C831	C83	0.410600	0.804100	0.460730
H571	H57	0.379100	0.757300	0.461000
C841	C84	0.445700	0.834000	0.444350
C851	C85	0.410800	0.508400	0.443990
H581	H58	0.407300	0.484500	0.432800
C861	C86	0.438300	0.497300	0.460020
H591	H59	0.453600	0.465800	0.459800
N141	N14	0.620300	0.823100	0.356140
C871	C87	0.553300	0.778100	0.352150
H601	H60	0.540600	0.759000	0.340000
C881	C88	0.504800	0.760900	0.365980
H611	H61	0.458900	0.730100	0.363300
C891	C89	0.523300	0.788800	0.383790
C901	C90	0.590300	0.833800	0.387780
H621	H62	0.603000	0.852900	0.400000
C911	C91	0.638800	0.851000	0.373960
H631	H63	0.684700	0.881800	0.376700
Ag81	Ag8	0.151850	0.307130	0.834320
O151	O15	0.034270	0.077830	0.759840
C921	C92	0.096070	0.125730	0.761030
O161	O16	0.953570	0.034330	0.727380
C931	C93	0.865370	0.007630	0.748070
H641	H64	0.831870	0.018730	0.751030
C941	C94	0.898170	0.032730	0.730760
N151	N15	0.134370	0.244430	0.809740
C951	C95	0.088270	0.176030	0.810090
H651	H65	0.064370	0.155630	0.821330
C961	C96	0.077270	0.137430	0.794060
H661	H66	0.045770	0.090630	0.794330
C971	C97	0.112370	0.167330	0.777680
C981	C98	0.077470	0.841730	0.777320
H671	H67	0.073970	0.817830	0.766130
C991	C99	0.104970	0.830630	0.793350
H681	H68	0.120270	0.799130	0.793130
N161	N16	0.286970	0.156430	0.689470
C1001	C100	0.219970	0.111430	0.685480
H691	H69	0.207270	0.092330	0.673330
C1011	C101	0.171470	0.094230	0.699310
H701	H70	0.125570	0.063430	0.696630
C1021	C102	0.189970	0.122130	0.717120
C1031	C103	0.256970	0.167130	0.721110
H711	H71	0.269670	0.186230	0.733330
C1041	C104	0.305470	0.184330	0.707290
H721	H72	0.351370	0.215130	0.710030
Ag91	Ag9	0.818510	0.640470	0.167660
O171	O17	0.700930	0.411170	0.093180
C1051	C105	0.762730	0.459070	0.094370
O181	O18	0.620230	0.367670	0.060720
C1061	C106	0.532030	0.340970	0.081410
H731	H73	0.498530	0.352070	0.084370
C1071	C107	0.564830	0.366070	0.064100
N171	N17	0.801030	0.577770	0.143080
C1081	C108	0.754930	0.509370	0.143430
H741	H74	0.731030	0.488970	0.154670
C1091	C109	0.743930	0.470770	0.127400
H751	H75	0.712430	0.423970	0.127670
C1101	C110	0.779030	0.500670	0.111020
C1111	C111	0.744130	0.175070	0.110660
H761	H76	0.740630	0.151170	0.099470
C1121	C112	0.771630	0.163970	0.126690
H771	H77	0.786930	0.132470	0.126470
N181	N18	0.953630	0.489770	0.022810
C1131	C113	0.886630	0.444770	0.018820
H781	H78	0.873930	0.425670	0.006670
C1141	C114	0.838130	0.427570	0.032650
H791	H79	0.792230	0.396770	0.029970
C1151	C115	0.856630	0.455470	0.050460
C1161	C116	0.923630	0.500470	0.054450
H801	H80	0.936330	0.519570	0.066670
C1171	C117	0.972130	0.517670	0.040630
H811	H81	0.018030	0.548470	0.043370
Ag101	Ag10	0.488620	0.973800	0.000990
O191	O19	0.376900	0.744500	0.926510
C1181	C118	0.363000	0.792400	0.927700
O201	O20	0.414100	0.701000	0.894050
C1191	C119	0.475600	0.674300	0.914740
H821	H82	0.520200	0.685400	0.917700
C1201	C120	0.467900	0.699400	0.897430
N191	N19	0.443400	0.911100	0.976410
C1211	C121	0.421100	0.842700	0.976760
H831	H83	0.424600	0.822300	0.988000
C1221	C122	0.393500	0.804100	0.960730
H841	H84	0.378200	0.757300	0.961000
C1231	C123	0.388300	0.834000	0.944350
C1241	C124	0.097600	0.508400	0.943990
H851	H85	0.077200	0.484500	0.932800
C1251	C125	0.059000	0.497300	0.960020
H861	H86	0.012200	0.465800	0.959800
N201	N20	0.202800	0.823100	0.856140
C1261	C126	0.224800	0.778100	0.852150
H871	H87	0.218400	0.759000	0.840000
C1271	C127	0.256100	0.760900	0.865980
H881	H88	0.271200	0.730100	0.863300
C1281	C128	0.265500	0.788800	0.883790
C1291	C129	0.243500	0.833800	0.887780
H891	H89	0.249900	0.852900	0.900000
C1301	C130	0.212200	0.851000	0.873960
H901	H90	0.197100	0.881800	0.876700
Ag111	Ag11	0.155290	0.307130	0.334320
O211	O21	0.043570	0.077830	0.259840
C1311	C131	0.029670	0.125730	0.261030
O221	O22	0.080770	0.034330	0.227380
C1321	C132	0.142270	0.007630	0.248070
H911	H91	0.186870	0.018730	0.251030
C1331	C133	0.134570	0.032730	0.230760
N211	N21	0.110070	0.244430	0.309740
C1341	C134	0.087770	0.176030	0.310090
H921	H92	0.091270	0.155630	0.321330
C1351	C135	0.060170	0.137430	0.294060
H931	H93	0.044870	0.090630	0.294330
C1361	C136	0.054970	0.167330	0.277680
C1371	C137	0.764270	0.841730	0.277320
H941	H94	0.743870	0.817830	0.266130
C1381	C138	0.725670	0.830630	0.293350
H951	H95	0.678870	0.799130	0.293130
N221	N22	0.869470	0.156430	0.189470
C1391	C139	0.891470	0.111430	0.185480
H961	H96	0.885070	0.092330	0.173330
C1401	C140	0.922770	0.094230	0.199310
H971	H97	0.937870	0.063430	0.196630
C1411	C141	0.932170	0.122130	0.217120
C1421	C142	0.910170	0.167130	0.221110
H981	H98	0.916570	0.186230	0.233330
C1431	C143	0.878870	0.184330	0.207290
H991	H99	0.863770	0.215130	0.210030
Ag121	Ag12	0.821950	0.640470	0.667660
O231	O23	0.710230	0.411170	0.593180
C1441	C144	0.696330	0.459070	0.594370
O241	O24	0.747430	0.367670	0.560720
C1451	C145	0.808930	0.340970	0.581410
H1001	H100	0.853530	0.352070	0.584370
C1461	C146	0.801230	0.366070	0.564100
N231	N23	0.776730	0.577770	0.643080
C1471	C147	0.754430	0.509370	0.643430
H1011	H101	0.757930	0.488970	0.654670
C1481	C148	0.726830	0.470770	0.627400
H1021	H102	0.711530	0.423970	0.627670
C1491	C149	0.721630	0.500670	0.611020
C1501	C150	0.430930	0.175070	0.610660
H1031	H103	0.410530	0.151170	0.599470
C1511	C151	0.392330	0.163970	0.626690
H1041	H104	0.345530	0.132470	0.626470
N241	N24	0.536130	0.489770	0.522810
C1521	C152	0.558130	0.444770	0.518820
H1051	H105	0.551730	0.425670	0.506670
C1531	C153	0.589430	0.427570	0.532650
H1061	H106	0.604530	0.396770	0.529970
C1541	C154	0.598830	0.455470	0.550460
C1551	C155	0.576830	0.500470	0.554450
H1071	H107	0.583230	0.519570	0.566670
C1561	C156	0.545530	0.517670	0.540630
H1081	H108	0.530430	0.548470	0.543370
Ag131	Ag13	0.485180	0.511380	0.000990
O251	O25	0.367600	0.623100	0.926510
C1571	C157	0.429400	0.637000	0.927700
O261	O26	0.286900	0.585900	0.894050
C1581	C158	0.198700	0.524400	0.914740
H1091	H109	0.165200	0.479800	0.917700
C1591	C159	0.231500	0.532100	0.897430
N251	N25	0.467700	0.556600	0.976410
C1601	C160	0.421600	0.578900	0.976760
H1101	H110	0.397700	0.575400	0.988000
C1611	C161	0.410600	0.606500	0.960730
H1111	H111	0.379100	0.621800	0.961000
C1621	C162	0.445700	0.611700	0.944350
C1631	C163	0.410800	0.902400	0.943990
H1121	H112	0.407300	0.922800	0.932800
C1641	C164	0.438300	0.941000	0.960020
H1131	H113	0.453600	0.987800	0.959800
N261	N26	0.620300	0.797200	0.856140
C1651	C165	0.553300	0.775200	0.852150
H1141	H114	0.540600	0.781600	0.840000
C1661	C166	0.504800	0.743900	0.865980
H1151	H115	0.458900	0.728800	0.863300
C1671	C167	0.523300	0.734500	0.883790
C1681	C168	0.590300	0.756500	0.887780
H1161	H116	0.603000	0.750100	0.900000
C1691	C169	0.638800	0.787800	0.873960
H1171	H117	0.684700	0.802900	0.876700
Ag141	Ag14	0.151850	0.844710	0.334320
O271	O27	0.034270	0.956430	0.259840
C1701	C170	0.096070	0.970330	0.261030
O281	O28	0.953570	0.919230	0.227380
C1711	C171	0.865370	0.857730	0.248070
H1181	H118	0.831870	0.813130	0.251030
C1721	C172	0.898170	0.865430	0.230760
N271	N27	0.134370	0.889930	0.309740
C1731	C173	0.088270	0.912230	0.310090
H1191	H119	0.064370	0.908730	0.321330
C1741	C174	0.077270	0.939830	0.294060
H1201	H120	0.045770	0.955130	0.294330
C1751	C175	0.112370	0.945030	0.277680
C1761	C176	0.077470	0.235730	0.277320
H1211	H121	0.073970	0.256130	0.266130
C1771	C177	0.104970	0.274330	0.293350
H1221	H122	0.120270	0.321130	0.293130
N281	N28	0.286970	0.130530	0.189470
C1781	C178	0.219970	0.108530	0.185480
H1231	H123	0.207270	0.114930	0.173330
C1791	C179	0.171470	0.077230	0.199310
H1241	H124	0.125570	0.062130	0.196630
C1801	C180	0.189970	0.067830	0.217120
C1811	C181	0.256970	0.089830	0.221110
H1251	H125	0.269670	0.083430	0.233330
C1821	C182	0.305470	0.121130	0.207290
H1261	H126	0.351370	0.136230	0.210030
Ag151	Ag15	0.818510	0.178050	0.667660
O291	O29	0.700930	0.289770	0.593180
C1831	C183	0.762730	0.303670	0.594370
O301	O30	0.620230	0.252570	0.560720
C1841	C184	0.532030	0.191070	0.581410
H1271	H127	0.498530	0.146470	0.584370
C1851	C185	0.564830	0.198770	0.564100
N291	N29	0.801030	0.223270	0.643080
C1861	C186	0.754930	0.245570	0.643430
H1281	H128	0.731030	0.242070	0.654670
C1871	C187	0.743930	0.273170	0.627400
H1291	H129	0.712430	0.288470	0.627670
C1881	C188	0.779030	0.278370	0.611020
C1891	C189	0.744130	0.569070	0.610660
H1301	H130	0.740630	0.589470	0.599470
C1901	C190	0.771630	0.607670	0.626690
H1311	H131	0.786930	0.654470	0.626470
N301	N30	0.953630	0.463870	0.522810
C1911	C191	0.886630	0.441870	0.518820
H1321	H132	0.873930	0.448270	0.506670
C1921	C192	0.838130	0.410570	0.532650
H1331	H133	0.792230	0.395470	0.529970
C1931	C193	0.856630	0.401170	0.550460
C1941	C194	0.923630	0.423170	0.554450
H1341	H134	0.936330	0.416770	0.566670
C1951	C195	0.972130	0.454470	0.540630
H1351	H135	0.018030	0.469570	0.543370
Ag161	Ag16	0.026200	0.514820	0.000990
O311	O31	0.255500	0.632400	0.926510
C1961	C196	0.207600	0.570600	0.927700
O321	O32	0.299000	0.713100	0.894050
C1971	C197	0.325700	0.801300	0.914740
H1361	H136	0.314600	0.834800	0.917700
C1981	C198	0.300600	0.768500	0.897430
N311	N31	0.088900	0.532300	0.976410
C1991	C199	0.157300	0.578400	0.976760
H1371	H137	0.177700	0.602300	0.988000
C2001	C200	0.195900	0.589400	0.960730
H1381	H138	0.242700	0.620900	0.961000
C2011	C201	0.166000	0.554300	0.944350
C2021	C202	0.491600	0.589200	0.943990
H1391	H139	0.515500	0.592700	0.932800
C2031	C203	0.502700	0.561700	0.960020
H1401	H140	0.534200	0.546400	0.959800
N321	N32	0.176900	0.379700	0.856140
C2041	C204	0.221900	0.446700	0.852150
H1411	H141	0.241000	0.459400	0.840000
C2051	C205	0.239100	0.495200	0.865980
H1421	H142	0.269900	0.541100	0.863300
C2061	C206	0.211200	0.476700	0.883790
C2071	C207	0.166200	0.409700	0.887780
H1431	H143	0.147100	0.397000	0.900000
C2081	C208	0.149000	0.361200	0.873960
H1441	H144	0.118200	0.315300	0.876700
Ag171	Ag17	0.692870	0.848150	0.334320
O331	O33	0.922170	0.965730	0.259840
C2091	C209	0.874270	0.903930	0.261030
O341	O34	0.965670	0.046430	0.227380
C2101	C210	0.992370	0.134630	0.248070
H1451	H145	0.981270	0.168130	0.251030
C2111	C211	0.967270	0.101830	0.230760
N331	N33	0.755570	0.865630	0.309740
C2121	C212	0.823970	0.911730	0.310090
H1461	H146	0.844370	0.935630	0.321330
C2131	C213	0.862570	0.922730	0.294060
H1471	H147	0.909370	0.954230	0.294330
C2141	C214	0.832670	0.887630	0.277680
C2151	C215	0.158270	0.922530	0.277320
H1481	H148	0.182170	0.926030	0.266130
C2161	C216	0.169370	0.895030	0.293350
H1491	H149	0.200870	0.879730	0.293130
N341	N34	0.843570	0.713030	0.189470
C2171	C217	0.888570	0.780030	0.185480
H1501	H150	0.907670	0.792730	0.173330
C2181	C218	0.905770	0.828530	0.199310
H1511	H151	0.936570	0.874430	0.196630
C2191	C219	0.877870	0.810030	0.217120
C2201	C220	0.832870	0.743030	0.221110
H1521	H152	0.813770	0.730330	0.233330
C2211	C221	0.815670	0.694530	0.207290
H1531	H153	0.784870	0.648630	0.210030
Ag181	Ag18	0.359530	0.181490	0.667660
O351	O35	0.588830	0.299070	0.593180
C2221	C222	0.540930	0.237270	0.594370
O361	O36	0.632330	0.379770	0.560720
C2231	C223	0.659030	0.467970	0.581410
H1541	H154	0.647930	0.501470	0.584370
C2241	C224	0.633930	0.435170	0.564100
N351	N35	0.422230	0.198970	0.643080
C2251	C225	0.490630	0.245070	0.643430
H1551	H155	0.511030	0.268970	0.654670
C2261	C226	0.529230	0.256070	0.627400
H1561	H156	0.576030	0.287570	0.627670
C2271	C227	0.499330	0.220970	0.611020
C2281	C228	0.824930	0.255870	0.610660
H1571	H157	0.848830	0.259370	0.599470
C2291	C229	0.836030	0.228370	0.626690
H1581	H158	0.867530	0.213070	0.626470
N361	N36	0.510230	0.046370	0.522810
C2301	C230	0.555230	0.113370	0.518820
H1591	H159	0.574330	0.126070	0.506670
C2311	C231	0.572430	0.161870	0.532650
H1601	H160	0.603230	0.207770	0.529970
C2321	C232	0.544530	0.143370	0.550460
C2331	C233	0.499530	0.076370	0.554450
H1611	H161	0.480430	0.063670	0.566670
C2341	C234	0.482330	0.027870	0.540630
H1621	H162	0.451530	0.981970	0.543370
Ga11	Ga1	0.333330	0.666670	0.409690
Ga21	Ga2	0.000000	0.000000	0.743020
Ga31	Ga3	0.666670	0.333330	0.076360
Ga41	Ga4	0.333330	0.666670	0.909690
Ga51	Ga5	0.000000	0.000000	0.243020
Ga61	Ga6	0.666670	0.333330	0.576360
Ag191	Ag19	0.998450	0.461660	0.404120
O371	O37	0.255700	0.622700	0.337720
O381	O38	0.303100	0.588600	0.304820
C2351	C235	0.196400	0.616200	0.334510
C2361	C236	0.356900	0.534400	0.320470
H1631	H163	0.363900	0.497100	0.320000
C2371	C237	0.318900	0.543300	0.306740
N371	N37	0.062800	0.516000	0.380920
C2381	C238	0.036400	0.519500	0.363690
H1641	H164	0.989300	0.500900	0.362300
C2391	C239	0.078900	0.550200	0.348530
H1651	H165	0.060800	0.552600	0.336800
C2401	C240	0.147800	0.577500	0.350600
C2411	C241	0.399700	0.825800	0.367830
H1661	H166	0.371200	0.778700	0.369300
C2421	C242	0.411500	0.868300	0.382990
H1671	H167	0.391100	0.850300	0.394800
N381	N38	0.165300	0.768200	0.262030
C2431	C243	0.125800	0.744100	0.278050
H1681	H168	0.086200	0.747200	0.279200
C2441	C244	0.144200	0.715600	0.292380
H1691	H169	0.117200	0.699100	0.303400
C2451	C245	0.202000	0.711100	0.290710
C2461	C246	0.241500	0.735100	0.274690
H1701	H170	0.281000	0.732100	0.273600
C2471	C247	0.223100	0.763700	0.260350
H1711	H171	0.250100	0.780100	0.249400
Ag201	Ag20	0.665120	0.794990	0.737450
O391	O39	0.922370	0.956030	0.671050
O401	O40	0.969770	0.921930	0.638150
C2481	C248	0.863070	0.949530	0.667840
C2491	C249	0.023570	0.867730	0.653800
H1721	H172	0.030570	0.830430	0.653330
C2501	C250	0.985570	0.876630	0.640070
N391	N39	0.729470	0.849330	0.714250
C2511	C251	0.703070	0.852830	0.697020
H1731	H173	0.655970	0.834230	0.695630
C2521	C252	0.745570	0.883530	0.681860
H1741	H174	0.727470	0.885930	0.670130
C2531	C253	0.814470	0.910830	0.683930
C2541	C254	0.066370	0.159130	0.701160
H1751	H175	0.037870	0.112030	0.702630
C2551	C255	0.078170	0.201630	0.716320
H1761	H176	0.057770	0.183630	0.728130
N401	N40	0.831970	0.101530	0.595360
C2561	C256	0.792470	0.077430	0.611380
H1771	H177	0.752870	0.080530	0.612530
C2571	C257	0.810870	0.048930	0.625710
H1781	H178	0.783870	0.032430	0.636730
C2581	C258	0.868670	0.044430	0.624040
C2591	C259	0.908170	0.068430	0.608020
H1791	H179	0.947670	0.065430	0.606930
C2601	C260	0.889770	0.097030	0.593680
H1801	H180	0.916770	0.113430	0.582730
Ag211	Ag21	0.331780	0.128330	0.070790
O411	O41	0.589030	0.289370	0.004390
O421	O42	0.636430	0.255270	0.971490
C2611	C261	0.529730	0.282870	0.001180
C2621	C262	0.690230	0.201070	0.987140
H1811	H181	0.697230	0.163770	0.986670
C2631	C263	0.652230	0.209970	0.973410
N411	N41	0.396130	0.182670	0.047590
C2641	C264	0.369730	0.186170	0.030360
H1821	H182	0.322630	0.167570	0.028970
C2651	C265	0.412230	0.216870	0.015200
H1831	H183	0.394130	0.219270	0.003470
C2661	C266	0.481130	0.244170	0.017270
C2671	C267	0.733030	0.492470	0.034500
H1841	H184	0.704530	0.445370	0.035970
C2681	C268	0.744830	0.534970	0.049660
H1851	H185	0.724430	0.516970	0.061470
N421	N42	0.498630	0.434870	0.928700
C2691	C269	0.459130	0.410770	0.944720
H1861	H186	0.419530	0.413870	0.945870
C2701	C270	0.477530	0.382270	0.959050
H1871	H187	0.450530	0.365770	0.970070
C2711	C271	0.535330	0.377770	0.957380
C2721	C272	0.574830	0.401770	0.941360
H1881	H188	0.614330	0.398770	0.940270
C2731	C273	0.556430	0.430370	0.927020
H1891	H189	0.583430	0.446770	0.916070
Ag221	Ag22	0.538340	0.536790	0.404120
O431	O43	0.377300	0.633000	0.337720
O441	O44	0.411400	0.714500	0.304820
C2741	C274	0.383800	0.580200	0.334510
C2751	C275	0.465600	0.822500	0.320470
H1901	H190	0.502900	0.866800	0.320000
C2761	C276	0.456700	0.775600	0.306740
N431	N43	0.484000	0.546800	0.380920
C2771	C277	0.480500	0.516900	0.363690
H1911	H191	0.499100	0.488400	0.362300
C2781	C278	0.449800	0.528700	0.348530
H1921	H192	0.447400	0.508200	0.336800
C2791	C279	0.422500	0.570300	0.350600
C2801	C280	0.174200	0.573900	0.367830
H1931	H193	0.221300	0.592500	0.369300
C2811	C281	0.131700	0.543200	0.382990
H1941	H194	0.149700	0.540800	0.394800
N441	N44	0.231800	0.397100	0.262030
C2821	C282	0.255900	0.381700	0.278050
H1951	H195	0.252800	0.339000	0.279200
C2831	C283	0.284400	0.428600	0.292380
H1961	H196	0.300900	0.418100	0.303400
C2841	C284	0.288900	0.490900	0.290710
C2851	C285	0.264900	0.506400	0.274690
H1971	H197	0.267900	0.548900	0.273600
C2861	C286	0.236300	0.459400	0.260350
H1981	H198	0.219900	0.470000	0.249400
Ag231	Ag23	0.205010	0.870120	0.737450
O451	O45	0.043970	0.966330	0.671050
O461	O46	0.078070	0.047830	0.638150
C2871	C287	0.050470	0.913530	0.667840
C2881	C288	0.132270	0.155830	0.653800
H1991	H199	0.169570	0.200130	0.653330
C2891	C289	0.123370	0.108930	0.640070
N451	N45	0.150670	0.880130	0.714250
C2901	C290	0.147170	0.850230	0.697020
H2001	H200	0.165770	0.821730	0.695630
C2911	C291	0.116470	0.862030	0.681860
H2011	H201	0.114070	0.841530	0.670130
C2921	C292	0.089170	0.903630	0.683930
C2931	C293	0.840870	0.907230	0.701160
H2021	H202	0.887970	0.925830	0.702630
C2941	C294	0.798370	0.876530	0.716320
H2031	H203	0.816370	0.874130	0.728130
N461	N46	0.898470	0.730430	0.595360
C2951	C295	0.922570	0.715030	0.611380
H2041	H204	0.919470	0.672330	0.612530
C2961	C296	0.951070	0.761930	0.625710
H2051	H205	0.967570	0.751430	0.636730
C2971	C297	0.955570	0.824230	0.624040
C2981	C298	0.931570	0.839730	0.608020
H2061	H206	0.934570	0.882230	0.606930
C2991	C299	0.902970	0.792730	0.593680
H2071	H207	0.886570	0.803330	0.582730
Ag241	Ag24	0.871670	0.203460	0.070790
O471	O47	0.710630	0.299670	0.004390
O481	O48	0.744730	0.381170	0.971490
C3001	C300	0.717130	0.246870	0.001180
C3011	C301	0.798930	0.489170	0.987140
H2081	H208	0.836230	0.533470	0.986670
C3021	C302	0.790030	0.442270	0.973410
N471	N47	0.817330	0.213470	0.047590
C3031	C303	0.813830	0.183570	0.030360
H2091	H209	0.832430	0.155070	0.028970
C3041	C304	0.783130	0.195370	0.015200
H2101	H210	0.780730	0.174870	0.003470
C3051	C305	0.755830	0.236970	0.017270
C3061	C306	0.507530	0.240570	0.034500
H2111	H211	0.554630	0.259170	0.035970
C3071	C307	0.465030	0.209870	0.049660
H2121	H212	0.483030	0.207470	0.061470
N481	N48	0.565130	0.063770	0.928700
C3081	C308	0.589230	0.048370	0.944720
H2131	H213	0.586130	0.005670	0.945870
C3091	C309	0.617730	0.095270	0.959050
H2141	H214	0.634230	0.084770	0.970070
C3101	C310	0.622230	0.157570	0.957380
C3111	C311	0.598230	0.173070	0.941360
H2151	H215	0.601230	0.215570	0.940270
C3121	C312	0.569630	0.126070	0.927020
H2161	H216	0.553230	0.136670	0.916070
Ag251	Ag25	0.463210	0.001550	0.404120
O491	O49	0.367000	0.744300	0.337720
O501	O50	0.285500	0.696900	0.304820
C3131	C313	0.419800	0.803600	0.334510
C3141	C314	0.177500	0.643100	0.320470
H2171	H217	0.133200	0.636100	0.320000
C3151	C315	0.224400	0.681100	0.306740
N491	N49	0.453200	0.937200	0.380920
C3161	C316	0.483100	0.963600	0.363690
H2181	H218	0.511600	0.010700	0.362300
C3171	C317	0.471300	0.921100	0.348530
H2191	H219	0.491800	0.939200	0.336800
C3181	C318	0.429700	0.852200	0.350600
C3191	C319	0.426100	0.600300	0.367830
H2201	H220	0.407500	0.628800	0.369300
C3201	C320	0.456800	0.588500	0.382990
H2211	H221	0.459200	0.608900	0.394800
N501	N50	0.602900	0.834700	0.262030
C3211	C321	0.618300	0.874200	0.278050
H2221	H222	0.661000	0.913800	0.279200
C3221	C322	0.571400	0.855800	0.292380
H2231	H223	0.581900	0.882800	0.303400
C3231	C323	0.509100	0.798000	0.290710
C3241	C324	0.493600	0.758500	0.274690
H2241	H224	0.451100	0.719000	0.273600
C3251	C325	0.540600	0.776900	0.260350
H2251	H225	0.530000	0.749900	0.249400
Ag261	Ag26	0.129880	0.334880	0.737450
O511	O51	0.033670	0.077630	0.671050
O521	O52	0.952170	0.030230	0.638150
C3261	C326	0.086470	0.136930	0.667840
C3271	C327	0.844170	0.976430	0.653800
H2261	H226	0.799870	0.969430	0.653330
C3281	C328	0.891070	0.014430	0.640070
N511	N51	0.119870	0.270530	0.714250
C3291	C329	0.149770	0.296930	0.697020
H2271	H227	0.178270	0.344030	0.695630
C3301	C330	0.137970	0.254430	0.681860
H2281	H228	0.158470	0.272530	0.670130
C3311	C331	0.096370	0.185530	0.683930
C3321	C332	0.092770	0.933630	0.701160
H2291	H229	0.074170	0.962130	0.702630
C3331	C333	0.123470	0.921830	0.716320
H2301	H230	0.125870	0.942230	0.728130
N521	N52	0.269570	0.168030	0.595360
C3341	C334	0.284970	0.207530	0.611380
H2311	H231	0.327670	0.247130	0.612530
C3351	C335	0.238070	0.189130	0.625710
H2321	H232	0.248570	0.216130	0.636730
C3361	C336	0.175770	0.131330	0.624040
C3371	C337	0.160270	0.091830	0.608020
H2331	H233	0.117770	0.052330	0.606930
C3381	C338	0.207270	0.110230	0.593680
H2341	H234	0.196670	0.083230	0.582730
Ag271	Ag27	0.796540	0.668220	0.070790
O531	O53	0.700330	0.410970	0.004390
O541	O54	0.618830	0.363570	0.971490
C3391	C339	0.753130	0.470270	0.001180
C3401	C340	0.510830	0.309770	0.987140
H2351	H235	0.466530	0.302770	0.986670
C3411	C341	0.557730	0.347770	0.973410
N531	N53	0.786530	0.603870	0.047590
C3421	C342	0.816430	0.630270	0.030360
H2361	H236	0.844930	0.677370	0.028970
C3431	C343	0.804630	0.587770	0.015200
H2371	H237	0.825130	0.605870	0.003470
C3441	C344	0.763030	0.518870	0.017270
C3451	C345	0.759430	0.266970	0.034500
H2381	H238	0.740830	0.295470	0.035970
C3461	C346	0.790130	0.255170	0.049660
H2391	H239	0.792530	0.275570	0.061470
N541	N54	0.936230	0.501370	0.928700
C3471	C347	0.951630	0.540870	0.944720
H2401	H240	0.994330	0.580470	0.945870
C3481	C348	0.904730	0.522470	0.959050
H2411	H241	0.915230	0.549470	0.970070
C3491	C349	0.842430	0.464670	0.957380
C3501	C350	0.826930	0.425170	0.941360
H2421	H242	0.784430	0.385670	0.940270
C3511	C351	0.873930	0.443570	0.927020
H2431	H243	0.863330	0.416570	0.916070
Ag281	Ag28	0.538340	0.001550	0.904120
O551	O55	0.377300	0.744300	0.837720
O561	O56	0.411400	0.696900	0.804820
C3521	C352	0.383800	0.803600	0.834510
C3531	C353	0.465600	0.643100	0.820470
H2441	H244	0.502900	0.636100	0.820000
C3541	C354	0.456700	0.681100	0.806740
N551	N55	0.484000	0.937200	0.880920
C3551	C355	0.480500	0.963600	0.863690
H2451	H245	0.499100	0.010700	0.862300
C3561	C356	0.449800	0.921100	0.848530
H2461	H246	0.447400	0.939200	0.836800
C3571	C357	0.422500	0.852200	0.850600
C3581	C358	0.174200	0.600300	0.867830
H2471	H247	0.221300	0.628800	0.869300
C3591	C359	0.131700	0.588500	0.882990
H2481	H248	0.149700	0.608900	0.894800
N561	N56	0.231800	0.834700	0.762030
C3601	C360	0.255900	0.874200	0.778050
H2491	H249	0.252800	0.913800	0.779200
C3611	C361	0.284400	0.855800	0.792380
H2501	H250	0.300900	0.882800	0.803400
C3621	C362	0.288900	0.798000	0.790710
C3631	C363	0.264900	0.758500	0.774690
H2511	H251	0.267900	0.719000	0.773600
C3641	C364	0.236300	0.776900	0.760350
H2521	H252	0.219900	0.749900	0.749400
Ag291	Ag29	0.205010	0.334880	0.237450
O571	O57	0.043970	0.077630	0.171050
O581	O58	0.078070	0.030230	0.138150
C3651	C365	0.050470	0.136930	0.167840
C3661	C366	0.132270	0.976430	0.153800
H2531	H253	0.169570	0.969430	0.153330
C3671	C367	0.123370	0.014430	0.140070
N571	N57	0.150670	0.270530	0.214250
C3681	C368	0.147170	0.296930	0.197020
H2541	H254	0.165770	0.344030	0.195630
C3691	C369	0.116470	0.254430	0.181860
H2551	H255	0.114070	0.272530	0.170130
C3701	C370	0.089170	0.185530	0.183930
C3711	C371	0.840870	0.933630	0.201160
H2561	H256	0.887970	0.962130	0.202630
C3721	C372	0.798370	0.921830	0.216320
H2571	H257	0.816370	0.942230	0.228130
N581	N58	0.898470	0.168030	0.095360
C3731	C373	0.922570	0.207530	0.111380
H2581	H258	0.919470	0.247130	0.112530
C3741	C374	0.951070	0.189130	0.125710
H2591	H259	0.967570	0.216130	0.136730
C3751	C375	0.955570	0.131330	0.124040
C3761	C376	0.931570	0.091830	0.108020
H2601	H260	0.934570	0.052330	0.106930
C3771	C377	0.902970	0.110230	0.093680
H2611	H261	0.886570	0.083230	0.082730
Ag301	Ag30	0.871670	0.668220	0.570790
O591	O59	0.710630	0.410970	0.504390
O601	O60	0.744730	0.363570	0.471490
C3781	C378	0.717130	0.470270	0.501180
C3791	C379	0.798930	0.309770	0.487140
H2621	H262	0.836230	0.302770	0.486670
C3801	C380	0.790030	0.347770	0.473410
N591	N59	0.817330	0.603870	0.547590
C3811	C381	0.813830	0.630270	0.530360
H2631	H263	0.832430	0.677370	0.528970
C3821	C382	0.783130	0.587770	0.515200
H2641	H264	0.780730	0.605870	0.503470
C3831	C383	0.755830	0.518870	0.517270
C3841	C384	0.507530	0.266970	0.534500
H2651	H265	0.554630	0.295470	0.535970
C3851	C385	0.465030	0.255170	0.549660
H2661	H266	0.483030	0.275570	0.561470
N601	N60	0.565130	0.501370	0.428700
C3861	C386	0.589230	0.540870	0.444720
H2671	H267	0.586130	0.580470	0.445870
C3871	C387	0.617730	0.522470	0.459050
H2681	H268	0.634230	0.549470	0.470070
C3881	C388	0.622230	0.464670	0.457380
C3891	C389	0.598230	0.425170	0.441360
H2691	H269	0.601230	0.385670	0.440270
C3901	C390	0.569630	0.443570	0.427020
H2701	H270	0.553230	0.416570	0.416070
Ag311	Ag31	0.463210	0.461660	0.904120
O611	O61	0.367000	0.622700	0.837720
O621	O62	0.285500	0.588600	0.804820
C3911	C391	0.419800	0.616200	0.834510
C3921	C392	0.177500	0.534400	0.820470
H2711	H271	0.133200	0.497100	0.820000
C3931	C393	0.224400	0.543300	0.806740
N611	N61	0.453200	0.516000	0.880920
C3941	C394	0.483100	0.519500	0.863690
H2721	H272	0.511600	0.500900	0.862300
C3951	C395	0.471300	0.550200	0.848530
H2731	H273	0.491800	0.552600	0.836800
C3961	C396	0.429700	0.577500	0.850600
C3971	C397	0.426100	0.825800	0.867830
H2741	H274	0.407500	0.778700	0.869300
C3981	C398	0.456800	0.868300	0.882990
H2751	H275	0.459200	0.850300	0.894800
N621	N62	0.602900	0.768200	0.762030
C3991	C399	0.618300	0.744100	0.778050
H2761	H276	0.661000	0.747200	0.779200
C4001	C400	0.571400	0.715600	0.792380
H2771	H277	0.581900	0.699100	0.803400
C4011	C401	0.509100	0.711100	0.790710
C4021	C402	0.493600	0.735100	0.774690
H2781	H278	0.451100	0.732100	0.773600
C4031	C403	0.540600	0.763700	0.760350
H2791	H279	0.530000	0.780100	0.749400
Ag321	Ag32	0.129880	0.794990	0.237450
O631	O63	0.033670	0.956030	0.171050
O641	O64	0.952170	0.921930	0.138150
C4041	C404	0.086470	0.949530	0.167840
C4051	C405	0.844170	0.867730	0.153800
H2801	H280	0.799870	0.830430	0.153330
C4061	C406	0.891070	0.876630	0.140070
N631	N63	0.119870	0.849330	0.214250
C4071	C407	0.149770	0.852830	0.197020
H2811	H281	0.178270	0.834230	0.195630
C4081	C408	0.137970	0.883530	0.181860
H2821	H282	0.158470	0.885930	0.170130
C4091	C409	0.096370	0.910830	0.183930
C4101	C410	0.092770	0.159130	0.201160
H2831	H283	0.074170	0.112030	0.202630
C4111	C411	0.123470	0.201630	0.216320
H2841	H284	0.125870	0.183630	0.228130
N641	N64	0.269570	0.101530	0.095360
C4121	C412	0.284970	0.077430	0.111380
H2851	H285	0.327670	0.080530	0.112530
C4131	C413	0.238070	0.048930	0.125710
H2861	H286	0.248570	0.032430	0.136730
C4141	C414	0.175770	0.044430	0.124040
C4151	C415	0.160270	0.068430	0.108020
H2871	H287	0.117770	0.065430	0.106930
C4161	C416	0.207270	0.097030	0.093680
H2881	H288	0.196670	0.113430	0.082730
Ag331	Ag33	0.796540	0.128330	0.570790
O651	O65	0.700330	0.289370	0.504390
O661	O66	0.618830	0.255270	0.471490
C4171	C417	0.753130	0.282870	0.501180
C4181	C418	0.510830	0.201070	0.487140
H2891	H289	0.466530	0.163770	0.486670
C4191	C419	0.557730	0.209970	0.473410
N651	N65	0.786530	0.182670	0.547590
C4201	C420	0.816430	0.186170	0.530360
H2901	H290	0.844930	0.167570	0.528970
C4211	C421	0.804630	0.216870	0.515200
H2911	H291	0.825130	0.219270	0.503470
C4221	C422	0.763030	0.244170	0.517270
C4231	C423	0.759430	0.492470	0.534500
H2921	H292	0.740830	0.445370	0.535970
C4241	C424	0.790130	0.534970	0.549660
H2931	H293	0.792530	0.516970	0.561470
N661	N66	0.936230	0.434870	0.428700
C4251	C425	0.951630	0.410770	0.444720
H2941	H294	0.994330	0.413870	0.445870
C4261	C426	0.904730	0.382270	0.459050
H2951	H295	0.915230	0.365770	0.470070
C4271	C427	0.842430	0.377770	0.457380
C4281	C428	0.826930	0.401770	0.441360
H2961	H296	0.784430	0.398770	0.440270
C4291	C429	0.873930	0.430370	0.427020
H2971	H297	0.863330	0.446770	0.416070
Ag341	Ag34	0.998450	0.536790	0.904120
O671	O67	0.255700	0.633000	0.837720
O681	O68	0.303100	0.714500	0.804820
C4301	C430	0.196400	0.580200	0.834510
C4311	C431	0.356900	0.822500	0.820470
H2981	H298	0.363900	0.866800	0.820000
C4321	C432	0.318900	0.775600	0.806740
N671	N67	0.062800	0.546800	0.880920
C4331	C433	0.036400	0.516900	0.863690
H2991	H299	0.989300	0.488400	0.862300
C4341	C434	0.078900	0.528700	0.848530
H3001	H300	0.060800	0.508200	0.836800
C4351	C435	0.147800	0.570300	0.850600
C4361	C436	0.399700	0.573900	0.867830
H3011	H301	0.371200	0.592500	0.869300
C4371	C437	0.411500	0.543200	0.882990
H3021	H302	0.391100	0.540800	0.894800
N681	N68	0.165300	0.397100	0.762030
C4381	C438	0.125800	0.381700	0.778050
H3031	H303	0.086200	0.339000	0.779200
C4391	C439	0.144200	0.428600	0.792380
H3041	H304	0.117200	0.418100	0.803400
C4401	C440	0.202000	0.490900	0.790710
C4411	C441	0.241500	0.506400	0.774690
H3051	H305	0.281000	0.548900	0.773600
C4421	C442	0.223100	0.459400	0.760350
H3061	H306	0.250100	0.470000	0.749400
Ag351	Ag35	0.665120	0.870120	0.237450
O691	O69	0.922370	0.966330	0.171050
O701	O70	0.969770	0.047830	0.138150
C4431	C443	0.863070	0.913530	0.167840
C4441	C444	0.023570	0.155830	0.153800
H3071	H307	0.030570	0.200130	0.153330
C4451	C445	0.985570	0.108930	0.140070
N691	N69	0.729470	0.880130	0.214250
C4461	C446	0.703070	0.850230	0.197020
H3081	H308	0.655970	0.821730	0.195630
C4471	C447	0.745570	0.862030	0.181860
H3091	H309	0.727470	0.841530	0.170130
C4481	C448	0.814470	0.903630	0.183930
C4491	C449	0.066370	0.907230	0.201160
H3101	H310	0.037870	0.925830	0.202630
C4501	C450	0.078170	0.876530	0.216320
H3111	H311	0.057770	0.874130	0.228130
N701	N70	0.831970	0.730430	0.095360
C4511	C451	0.792470	0.715030	0.111380
H3121	H312	0.752870	0.672330	0.112530
C4521	C452	0.810870	0.761930	0.125710
H3131	H313	0.783870	0.751430	0.136730
C4531	C453	0.868670	0.824230	0.124040
C4541	C454	0.908170	0.839730	0.108020
H3141	H314	0.947670	0.882230	0.106930
C4551	C455	0.889770	0.792730	0.093680
H3151	H315	0.916770	0.803330	0.082730
Ag361	Ag36	0.331780	0.203460	0.570790
O711	O71	0.589030	0.299670	0.504390
O721	O72	0.636430	0.381170	0.471490
C4561	C456	0.529730	0.246870	0.501180
C4571	C457	0.690230	0.489170	0.487140
H3161	H316	0.697230	0.533470	0.486670
C4581	C458	0.652230	0.442270	0.473410
N711	N71	0.396130	0.213470	0.547590
C4591	C459	0.369730	0.183570	0.530360
H3171	H317	0.322630	0.155070	0.528970
C4601	C460	0.412230	0.195370	0.515200
H3181	H318	0.394130	0.174870	0.503470
C4611	C461	0.481130	0.236970	0.517270
C4621	C462	0.733030	0.240570	0.534500
H3191	H319	0.704530	0.259170	0.535970
C4631	C463	0.744830	0.209870	0.549660
H3201	H320	0.724430	0.207470	0.561470
N721	N72	0.498630	0.063770	0.428700
C4641	C464	0.459130	0.048370	0.444720
H3211	H321	0.419530	0.005670	0.445870
C4651	C465	0.477530	0.095270	0.459050
H3221	H322	0.450530	0.084770	0.470070
C4661	C466	0.535330	0.157570	0.457380
C4671	C467	0.574830	0.173070	0.441360
H3231	H323	0.614330	0.215570	0.440270
C4681	C468	0.556430	0.126070	0.427020
H3241	H324	0.583430	0.136670	0.416070
Ga71	Ga7	0.333330	0.666670	0.321360
Ga81	Ga8	0.000000	0.000000	0.654690
Ga91	Ga9	0.666670	0.333330	0.988030
Ga101	Ga10	0.333330	0.666670	0.821360
Ga111	Ga11	0.000000	0.000000	0.154690
Ga121	Ga12	0.666670	0.333330	0.488030
Ag371	Ag37	0.971150	0.487300	0.301780
O731	O73	0.257800	0.633300	0.243250
O741	O74	0.292300	0.589500	0.210070
C4691	C469	0.194200	0.626500	0.236560
C4701	C470	0.349200	0.535500	0.220590
H3251	H325	0.363200	0.504400	0.217200
C4711	C471	0.306700	0.541100	0.208410
N731	N73	0.040300	0.526500	0.278190
C4721	C472	0.029100	0.556800	0.262810
H3261	H326	0.986800	0.554000	0.261200
C4731	C473	0.080000	0.591200	0.249770
H3271	H327	0.072400	0.612000	0.239300
C4741	C474	0.142000	0.595300	0.252120
C4751	C475	0.411800	0.846900	0.267500
H3281	H328	0.372300	0.804600	0.269100
C4761	C476	0.428300	0.897800	0.280530
H3291	H329	0.399900	0.890200	0.291100
N741	N74	0.195900	0.773200	0.159670
C4771	C477	0.144400	0.716000	0.168070
H3301	H330	0.100300	0.695500	0.163100
C4781	C478	0.157500	0.688900	0.183850
H3311	H331	0.122400	0.649800	0.189600
C4791	C479	0.222100	0.719000	0.191220
C4801	C480	0.273600	0.776200	0.182810
H3321	H332	0.317700	0.796700	0.187900
C4811	C481	0.260500	0.803300	0.167040
H3331	H333	0.295700	0.842300	0.161300
Ag381	Ag38	0.637820	0.820630	0.635110
O751	O75	0.924470	0.966630	0.576580
O761	O76	0.958970	0.922830	0.543400
C4821	C482	0.860870	0.959830	0.569890
C4831	C483	0.015870	0.868830	0.553920
H3341	H334	0.029870	0.837730	0.550530
C4841	C484	0.973370	0.874430	0.541740
N751	N75	0.706970	0.859830	0.611520
C4851	C485	0.695770	0.890130	0.596140
H3351	H335	0.653470	0.887330	0.594530
C4861	C486	0.746670	0.924530	0.583100
H3361	H336	0.739070	0.945330	0.572630
C4871	C487	0.808670	0.928630	0.585450
C4881	C488	0.078470	0.180230	0.600830
H3371	H337	0.038970	0.137930	0.602430
C4891	C489	0.094970	0.231130	0.613860
H3381	H338	0.066570	0.223530	0.624430
N761	N76	0.862570	0.106530	0.493000
C4901	C490	0.811070	0.049330	0.501400
H3391	H339	0.766970	0.028830	0.496430
C4911	C491	0.824170	0.022230	0.517180
H3401	H340	0.789070	0.983130	0.522930
C4921	C492	0.888770	0.052330	0.524550
C4931	C493	0.940270	0.109530	0.516140
H3411	H341	0.984370	0.130030	0.521230
C4941	C494	0.927170	0.136630	0.500370
H3421	H342	0.962370	0.175630	0.494630
Ag391	Ag39	0.304480	0.153970	0.968450
O771	O77	0.591130	0.299970	0.909920
O781	O78	0.625630	0.256170	0.876740
C4951	C495	0.527530	0.293170	0.903230
C4961	C496	0.682530	0.202170	0.887260
H3431	H343	0.696530	0.171070	0.883870
C4971	C497	0.640030	0.207770	0.875080
N771	N77	0.373630	0.193170	0.944860
C4981	C498	0.362430	0.223470	0.929480
H3441	H344	0.320130	0.220670	0.927870
C4991	C499	0.413330	0.257870	0.916440
H3451	H345	0.405730	0.278670	0.905970
C5001	C500	0.475330	0.261970	0.918790
C5011	C501	0.745130	0.513570	0.934170
H3461	H346	0.705630	0.471270	0.935770
C5021	C502	0.761630	0.564470	0.947200
H3471	H347	0.733230	0.556870	0.957770
N781	N78	0.529230	0.439870	0.826340
C5031	C503	0.477730	0.382670	0.834740
H3481	H348	0.433630	0.362170	0.829770
C5041	C504	0.490830	0.355570	0.850520
H3491	H349	0.455730	0.316470	0.856270
C5051	C505	0.555430	0.385670	0.857890
C5061	C506	0.606930	0.442870	0.849480
H3501	H350	0.651030	0.463370	0.854570
C5071	C507	0.593830	0.469970	0.833710
H3511	H351	0.629030	0.508970	0.827970
Ag401	Ag40	0.512700	0.483850	0.301780
O791	O79	0.366700	0.624500	0.243250
O801	O80	0.410500	0.702800	0.210070
C5081	C508	0.373500	0.567700	0.236560
C5091	C509	0.464500	0.813700	0.220590
H3521	H352	0.495600	0.858800	0.217200
C5101	C510	0.458900	0.765600	0.208410
N791	N79	0.473500	0.513800	0.278190
C5111	C511	0.443200	0.472300	0.262810
H3531	H353	0.446000	0.432800	0.261200
C5121	C512	0.408800	0.488800	0.249770
H3541	H354	0.388000	0.460400	0.239300
C5131	C513	0.404700	0.546700	0.252120
C5141	C514	0.153100	0.564900	0.267500
H3551	H355	0.195400	0.567700	0.269100
C5151	C515	0.102200	0.530500	0.280530
H3561	H356	0.109800	0.509700	0.291100
N801	N80	0.226800	0.422700	0.159670
C5161	C516	0.284000	0.428400	0.168070
H3571	H357	0.304500	0.404800	0.163100
C5171	C517	0.311100	0.468600	0.183850
H3581	H358	0.350200	0.472600	0.189600
C5181	C518	0.281000	0.503100	0.191220
C5191	C519	0.223800	0.497400	0.182810
H3591	H359	0.203300	0.521000	0.187900
C5201	C520	0.196700	0.457200	0.167040
H3601	H360	0.157700	0.453400	0.161300
Ag411	Ag41	0.179370	0.817180	0.635110
O811	O81	0.033370	0.957830	0.576580
O821	O82	0.077170	0.036130	0.543400
C5211	C521	0.040170	0.901030	0.569890
C5221	C522	0.131170	0.147030	0.553920
H3611	H361	0.162270	0.192130	0.550530
C5231	C523	0.125570	0.098930	0.541740
N811	N81	0.140170	0.847130	0.611520
C5241	C524	0.109870	0.805630	0.596140
H3621	H362	0.112670	0.766130	0.594530
C5251	C525	0.075470	0.822130	0.583100
H3631	H363	0.054670	0.793730	0.572630
C5261	C526	0.071370	0.880030	0.585450
C5271	C527	0.819770	0.898230	0.600830
H3641	H364	0.862070	0.901030	0.602430
C5281	C528	0.768870	0.863830	0.613860
H3651	H365	0.776470	0.843030	0.624430
N821	N82	0.893470	0.756030	0.493000
C5291	C529	0.950670	0.761730	0.501400
H3661	H366	0.971170	0.738130	0.496430
C5301	C530	0.977770	0.801930	0.517180
H3671	H367	0.016870	0.805930	0.522930
C5311	C531	0.947670	0.836430	0.524550
C5321	C532	0.890470	0.830730	0.516140
H3681	H368	0.869970	0.854330	0.521230
C5331	C533	0.863370	0.790530	0.500370
H3691	H369	0.824370	0.786730	0.494630
Ag421	Ag42	0.846030	0.150520	0.968450
O831	O83	0.700030	0.291170	0.909920
O841	O84	0.743830	0.369470	0.876740
C5341	C534	0.706830	0.234370	0.903230
C5351	C535	0.797830	0.480370	0.887260
H3701	H370	0.828930	0.525470	0.883870
C5361	C536	0.792230	0.432270	0.875080
N831	N83	0.806830	0.180470	0.944860
C5371	C537	0.776530	0.138970	0.929480
H3711	H371	0.779330	0.099470	0.927870
C5381	C538	0.742130	0.155470	0.916440
H3721	H372	0.721330	0.127070	0.905970
C5391	C539	0.738030	0.213370	0.918790
C5401	C540	0.486430	0.231570	0.934170
H3731	H373	0.528730	0.234370	0.935770
C5411	C541	0.435530	0.197170	0.947200
H3741	H374	0.443130	0.176370	0.957770
N841	N84	0.560130	0.089370	0.826340
C5421	C542	0.617330	0.095070	0.834740
H3751	H375	0.637830	0.071470	0.829770
C5431	C543	0.644430	0.135270	0.850520
H3761	H376	0.683530	0.139270	0.856270
C5441	C544	0.614330	0.169770	0.857890
C5451	C545	0.557130	0.164070	0.849480
H3771	H377	0.536630	0.187670	0.854570
C5461	C546	0.530030	0.123870	0.833710
H3781	H378	0.491030	0.120070	0.827970
Ag431	Ag43	0.516150	0.028850	0.301780
O851	O85	0.375500	0.742200	0.243250
O861	O86	0.297200	0.707700	0.210070
C5471	C547	0.432300	0.805800	0.236560
C5481	C548	0.186300	0.650800	0.220590
H3791	H379	0.141200	0.636800	0.217200
C5491	C549	0.234400	0.693300	0.208410
N851	N85	0.486200	0.959700	0.278190
C5501	C550	0.527700	0.970900	0.262810
H3801	H380	0.567200	0.013200	0.261200
C5511	C551	0.511200	0.920000	0.249770
H3811	H381	0.539600	0.927600	0.239300
C5521	C552	0.453300	0.858000	0.252120
C5531	C553	0.435100	0.588200	0.267500
H3821	H382	0.432300	0.627700	0.269100
C5541	C554	0.469500	0.571700	0.280530
H3831	H383	0.490300	0.600100	0.291100
N861	N86	0.577300	0.804100	0.159670
C5551	C555	0.571600	0.855600	0.168070
H3841	H384	0.595200	0.899700	0.163100
C5561	C556	0.531400	0.842500	0.183850
H3851	H385	0.527400	0.877600	0.189600
C5571	C557	0.496900	0.777900	0.191220
C5581	C558	0.502600	0.726400	0.182810
H3861	H386	0.479000	0.682300	0.187900
C5591	C559	0.542800	0.739500	0.167040
H3871	H387	0.546600	0.704300	0.161300
Ag441	Ag44	0.182820	0.362180	0.635110
O871	O87	0.042170	0.075530	0.576580
O881	O88	0.963870	0.041030	0.543400
C5601	C560	0.098970	0.139130	0.569890
C5611	C561	0.852970	0.984130	0.553920
H3881	H388	0.807870	0.970130	0.550530
C5621	C562	0.901070	0.026630	0.541740
N871	N87	0.152870	0.293030	0.611520
C5631	C563	0.194370	0.304230	0.596140
H3891	H389	0.233870	0.346530	0.594530
C5641	C564	0.177870	0.253330	0.583100
H3901	H390	0.206270	0.260930	0.572630
C5651	C565	0.119970	0.191330	0.585450
C5661	C566	0.101770	0.921530	0.600830
H3911	H391	0.098970	0.961030	0.602430
C5671	C567	0.136170	0.905030	0.613860
H3921	H392	0.156970	0.933430	0.624430
N881	N88	0.243970	0.137430	0.493000
C5681	C568	0.238270	0.188930	0.501400
H3931	H393	0.261870	0.233030	0.496430
C5691	C569	0.198070	0.175830	0.517180
H3941	H394	0.194070	0.210930	0.522930
C5701	C570	0.163570	0.111230	0.524550
C5711	C571	0.169270	0.059730	0.516140
H3951	H395	0.145670	0.015630	0.521230
C5721	C572	0.209470	0.072830	0.500370
H3961	H396	0.213270	0.037630	0.494630
Ag451	Ag45	0.849480	0.695520	0.968450
O891	O89	0.708830	0.408870	0.909920
O901	O90	0.630530	0.374370	0.876740
C5731	C573	0.765630	0.472470	0.903230
C5741	C574	0.519630	0.317470	0.887260
H3971	H397	0.474530	0.303470	0.883870
C5751	C575	0.567730	0.359970	0.875080
N891	N89	0.819530	0.626370	0.944860
C5761	C576	0.861030	0.637570	0.929480
H3981	H398	0.900530	0.679870	0.927870
C5771	C577	0.844530	0.586670	0.916440
H3991	H399	0.872930	0.594270	0.905970
C5781	C578	0.786630	0.524670	0.918790
C5791	C579	0.768430	0.254870	0.934170
H4001	H400	0.765630	0.294370	0.935770
C5801	C580	0.802830	0.238370	0.947200
H4011	H401	0.823630	0.266770	0.957770
N901	N90	0.910630	0.470770	0.826340
C5811	C581	0.904930	0.522270	0.834740
H4021	H402	0.928530	0.566370	0.829770
C5821	C582	0.864730	0.509170	0.850520
H4031	H403	0.860730	0.544270	0.856270
C5831	C583	0.830230	0.444570	0.857890
C5841	C584	0.835930	0.393070	0.849480
H4041	H404	0.812330	0.348970	0.854570
C5851	C585	0.876130	0.406170	0.833710
H4051	H405	0.879930	0.370970	0.827970
Ag461	Ag46	0.512700	0.028850	0.801780
O911	O91	0.366700	0.742200	0.743250
O921	O92	0.410500	0.707700	0.710070
C5861	C586	0.373500	0.805800	0.736560
C5871	C587	0.464500	0.650800	0.720590
H4061	H406	0.495600	0.636800	0.717200
C5881	C588	0.458900	0.693300	0.708410
N911	N91	0.473500	0.959700	0.778190
C5891	C589	0.443200	0.970900	0.762810
H4071	H407	0.446000	0.013200	0.761200
C5901	C590	0.408800	0.920000	0.749770
H4081	H408	0.388000	0.927600	0.739300
C5911	C591	0.404700	0.858000	0.752120
C5921	C592	0.153100	0.588200	0.767500
H4091	H409	0.195400	0.627700	0.769100
C5931	C593	0.102200	0.571700	0.780530
H4101	H410	0.109800	0.600100	0.791100
N921	N92	0.226800	0.804100	0.659670
C5941	C594	0.284000	0.855600	0.668070
H4111	H411	0.304500	0.899700	0.663100
C5951	C595	0.311100	0.842500	0.683850
H4121	H412	0.350200	0.877600	0.689600
C5961	C596	0.281000	0.777900	0.691220
C5971	C597	0.223800	0.726400	0.682810
H4131	H413	0.203300	0.682300	0.687900
C5981	C598	0.196700	0.739500	0.667040
H4141	H414	0.157700	0.704300	0.661300
Ag471	Ag47	0.179370	0.362180	0.135110
O931	O93	0.033370	0.075530	0.076580
O941	O94	0.077170	0.041030	0.043400
C5991	C599	0.040170	0.139130	0.069890
C6001	C600	0.131170	0.984130	0.053920
H4151	H415	0.162270	0.970130	0.050530
C6011	C601	0.125570	0.026630	0.041740
N931	N93	0.140170	0.293030	0.111520
C6021	C602	0.109870	0.304230	0.096140
H4161	H416	0.112670	0.346530	0.094530
C6031	C603	0.075470	0.253330	0.083100
H4171	H417	0.054670	0.260930	0.072630
C6041	C604	0.071370	0.191330	0.085450
C6051	C605	0.819770	0.921530	0.100830
H4181	H418	0.862070	0.961030	0.102430
C6061	C606	0.768870	0.905030	0.113860
H4191	H419	0.776470	0.933430	0.124430
N941	N94	0.893470	0.137430	0.993000
C6071	C607	0.950670	0.188930	0.001400
H4201	H420	0.971170	0.233030	0.996430
C6081	C608	0.977770	0.175830	0.017180
H4211	H421	0.016870	0.210930	0.022930
C6091	C609	0.947670	0.111230	0.024550
C6101	C610	0.890470	0.059730	0.016140
H4221	H422	0.869970	0.015630	0.021230
C6111	C611	0.863370	0.072830	0.000370
H4231	H423	0.824370	0.037630	0.994630
Ag481	Ag48	0.846030	0.695520	0.468450
O951	O95	0.700030	0.408870	0.409920
O961	O96	0.743830	0.374370	0.376740
C6121	C612	0.706830	0.472470	0.403230
C6131	C613	0.797830	0.317470	0.387260
H4241	H424	0.828930	0.303470	0.383870
C6141	C614	0.792230	0.359970	0.375080
N951	N95	0.806830	0.626370	0.444860
C6151	C615	0.776530	0.637570	0.429480
H4251	H425	0.779330	0.679870	0.427870
C6161	C616	0.742130	0.586670	0.416440
H4261	H426	0.721330	0.594270	0.405970
C6171	C617	0.738030	0.524670	0.418790
C6181	C618	0.486430	0.254870	0.434170
H4271	H427	0.528730	0.294370	0.435770
C6191	C619	0.435530	0.238370	0.447200
H4281	H428	0.443130	0.266770	0.457770
N961	N96	0.560130	0.470770	0.326340
C6201	C620	0.617330	0.522270	0.334740
H4291	H429	0.637830	0.566370	0.329770
C6211	C621	0.644430	0.509170	0.350520
H4301	H430	0.683530	0.544270	0.356270
C6221	C622	0.614330	0.444570	0.357890
C6231	C623	0.557130	0.393070	0.349480
H4311	H431	0.536630	0.348970	0.354570
C6241	C624	0.530030	0.406170	0.333710
H4321	H432	0.491030	0.370970	0.327970
Ag491	Ag49	0.516150	0.487300	0.801780
O971	O97	0.375500	0.633300	0.743250
O981	O98	0.297200	0.589500	0.710070
C6251	C625	0.432300	0.626500	0.736560
C6261	C626	0.186300	0.535500	0.720590
H4331	H433	0.141200	0.504400	0.717200
C6271	C627	0.234400	0.541100	0.708410
N971	N97	0.486200	0.526500	0.778190
C6281	C628	0.527700	0.556800	0.762810
H4341	H434	0.567200	0.554000	0.761200
C6291	C629	0.511200	0.591200	0.749770
H4351	H435	0.539600	0.612000	0.739300
C6301	C630	0.453300	0.595300	0.752120
C6311	C631	0.435100	0.846900	0.767500
H4361	H436	0.432300	0.804600	0.769100
C6321	C632	0.469500	0.897800	0.780530
H4371	H437	0.490300	0.890200	0.791100
N981	N98	0.577300	0.773200	0.659670
C6331	C633	0.571600	0.716000	0.668070
H4381	H438	0.595200	0.695500	0.663100
C6341	C634	0.531400	0.688900	0.683850
H4391	H439	0.527400	0.649800	0.689600
C6351	C635	0.496900	0.719000	0.691220
C6361	C636	0.502600	0.776200	0.682810
H4401	H440	0.479000	0.796700	0.687900
C6371	C637	0.542800	0.803300	0.667040
H4411	H441	0.546600	0.842300	0.661300
Ag501	Ag50	0.182820	0.820630	0.135110
O991	O99	0.042170	0.966630	0.076580
O1001	O100	0.963870	0.922830	0.043400
C6381	C638	0.098970	0.959830	0.069890
C6391	C639	0.852970	0.868830	0.053920
H4421	H442	0.807870	0.837730	0.050530
C6401	C640	0.901070	0.874430	0.041740
N991	N99	0.152870	0.859830	0.111520
C6411	C641	0.194370	0.890130	0.096140
H4431	H443	0.233870	0.887330	0.094530
C6421	C642	0.177870	0.924530	0.083100
H4441	H444	0.206270	0.945330	0.072630
C6431	C643	0.119970	0.928630	0.085450
C6441	C644	0.101770	0.180230	0.100830
H4451	H445	0.098970	0.137930	0.102430
C6451	C645	0.136170	0.231130	0.113860
H4461	H446	0.156970	0.223530	0.124430
N1001	N100	0.243970	0.106530	0.993000
C6461	C646	0.238270	0.049330	0.001400
H4471	H447	0.261870	0.028830	0.996430
C6471	C647	0.198070	0.022230	0.017180
H4481	H448	0.194070	0.983130	0.022930
C6481	C648	0.163570	0.052330	0.024550
C6491	C649	0.169270	0.109530	0.016140
H4491	H449	0.145670	0.130030	0.021230
C6501	C650	0.209470	0.136630	0.000370
H4501	H450	0.213270	0.175630	0.994630
Ag511	Ag51	0.849480	0.153970	0.468450
O1011	O101	0.708830	0.299970	0.409920
O1021	O102	0.630530	0.256170	0.376740
C6511	C651	0.765630	0.293170	0.403230
C6521	C652	0.519630	0.202170	0.387260
H4511	H451	0.474530	0.171070	0.383870
C6531	C653	0.567730	0.207770	0.375080
N1011	N101	0.819530	0.193170	0.444860
C6541	C654	0.861030	0.223470	0.429480
H4521	H452	0.900530	0.220670	0.427870
C6551	C655	0.844530	0.257870	0.416440
H4531	H453	0.872930	0.278670	0.405970
C6561	C656	0.786630	0.261970	0.418790
C6571	C657	0.768430	0.513570	0.434170
H4541	H454	0.765630	0.471270	0.435770
C6581	C658	0.802830	0.564470	0.447200
H4551	H455	0.823630	0.556870	0.457770
N1021	N102	0.910630	0.439870	0.326340
C6591	C659	0.904930	0.382670	0.334740
H4561	H456	0.928530	0.362170	0.329770
C6601	C660	0.864730	0.355570	0.350520
H4571	H457	0.860730	0.316470	0.356270
C6611	C661	0.830230	0.385670	0.357890
C6621	C662	0.835930	0.442870	0.349480
H4581	H458	0.812330	0.463370	0.354570
C6631	C663	0.876130	0.469970	0.333710
H4591	H459	0.879930	0.508970	0.327970
Ag521	Ag52	0.971150	0.483850	0.801780
O1031	O103	0.257800	0.624500	0.743250
O1041	O104	0.292300	0.702800	0.710070
C6641	C664	0.194200	0.567700	0.736560
C6651	C665	0.349200	0.813700	0.720590
H4601	H460	0.363200	0.858800	0.717200
C6661	C666	0.306700	0.765600	0.708410
N1031	N103	0.040300	0.513800	0.778190
C6671	C667	0.029100	0.472300	0.762810
H4611	H461	0.986800	0.432800	0.761200
C6681	C668	0.080000	0.488800	0.749770
H4621	H462	0.072400	0.460400	0.739300
C6691	C669	0.142000	0.546700	0.752120
C6701	C670	0.411800	0.564900	0.767500
H4631	H463	0.372300	0.567700	0.769100
C6711	C671	0.428300	0.530500	0.780530
H4641	H464	0.399900	0.509700	0.791100
N1041	N104	0.195900	0.422700	0.659670
C6721	C672	0.144400	0.428400	0.668070
H4651	H465	0.100300	0.404800	0.663100
C6731	C673	0.157500	0.468600	0.683850
H4661	H466	0.122400	0.472600	0.689600
C6741	C674	0.222100	0.503100	0.691220
C6751	C675	0.273600	0.497400	0.682810
H4671	H467	0.317700	0.521000	0.687900
C6761	C676	0.260500	0.457200	0.667040
H4681	H468	0.295700	0.453400	0.661300
Ag531	Ag53	0.637820	0.817180	0.135110
O1051	O105	0.924470	0.957830	0.076580
O1061	O106	0.958970	0.036130	0.043400
C6771	C677	0.860870	0.901030	0.069890
C6781	C678	0.015870	0.147030	0.053920
H4691	H469	0.029870	0.192130	0.050530
C6791	C679	0.973370	0.098930	0.041740
N1051	N105	0.706970	0.847130	0.111520
C6801	C680	0.695770	0.805630	0.096140
H4701	H470	0.653470	0.766130	0.094530
C6811	C681	0.746670	0.822130	0.083100
H4711	H471	0.739070	0.793730	0.072630
C6821	C682	0.808670	0.880030	0.085450
C6831	C683	0.078470	0.898230	0.100830
H4721	H472	0.038970	0.901030	0.102430
C6841	C684	0.094970	0.863830	0.113860
H4731	H473	0.066570	0.843030	0.124430
N1061	N106	0.862570	0.756030	0.993000
C6851	C685	0.811070	0.761730	0.001400
H4741	H474	0.766970	0.738130	0.996430
C6861	C686	0.824170	0.801930	0.017180
H4751	H475	0.789070	0.805930	0.022930
C6871	C687	0.888770	0.836430	0.024550
C6881	C688	0.940270	0.830730	0.016140
H4761	H476	0.984370	0.854330	0.021230
C6891	C689	0.927170	0.790530	0.000370
H4771	H477	0.962370	0.786730	0.994630
Ag541	Ag54	0.304480	0.150520	0.468450
O1071	O107	0.591130	0.291170	0.409920
O1081	O108	0.625630	0.369470	0.376740
C6901	C690	0.527530	0.234370	0.403230
C6911	C691	0.682530	0.480370	0.387260
H4781	H478	0.696530	0.525470	0.383870
C6921	C692	0.640030	0.432270	0.375080
N1071	N107	0.373630	0.180470	0.444860
C6931	C693	0.362430	0.138970	0.429480
H4791	H479	0.320130	0.099470	0.427870
C6941	C694	0.413330	0.155470	0.416440
H4801	H480	0.405730	0.127070	0.405970
C6951	C695	0.475330	0.213370	0.418790
C6961	C696	0.745130	0.231570	0.434170
H4811	H481	0.705630	0.234370	0.435770
C6971	C697	0.761630	0.197170	0.447200
H4821	H482	0.733230	0.176370	0.457770
N1081	N108	0.529230	0.089370	0.326340
C6981	C698	0.477730	0.095070	0.334740
H4831	H483	0.433630	0.071470	0.329770
C6991	C699	0.490830	0.135270	0.350520
H4841	H484	0.455730	0.139270	0.356270
C7001	C700	0.555430	0.169770	0.357890
C7011	C701	0.606930	0.164070	0.349480
H4851	H485	0.651030	0.187670	0.354570
C7021	C702	0.593830	0.123870	0.333710
H4861	H486	0.629030	0.120070	0.327970
Ga131	Ga13	0.333330	0.666670	0.226810
Ga141	Ga14	0.000000	0.000000	0.560140
Ga151	Ga15	0.666670	0.333330	0.893480
Ga161	Ga16	0.333330	0.666670	0.726810
Ga171	Ga17	0.000000	0.000000	0.060140
Ga181	Ga18	0.666670	0.333330	0.393480
