data_YUXLEJ_clean_PM
_symmetry_space_group_name_H-M	'P1'
_cell_length_a	22.456200
_cell_length_b	22.456200
_cell_length_c	72.148100
_cell_angle_alpha	90.000000
_cell_angle_beta	90.000000
_cell_angle_gamma	120.000000
_symmetry_Int_Tables_number 1

loop_
_symmetry_equiv_pos_as_xyz
'x,y,z'

loop_
_atom_site_label
_atom_site_type_symbol
_atom_site_fract_x
_atom_site_fract_y
_atom_site_fract_z
Ag11	Ag1	0.363550	0.187620	0.981710
O11	O1	0.590430	0.298740	0.905610
C11	C1	0.543600	0.237400	0.907610
O21	O2	0.745450	0.366180	0.874980
C21	C2	0.816300	0.345900	0.895800
H11	H1	0.861700	0.356100	0.898800
C31	C3	0.803200	0.371100	0.879330
C41	C4	0.501100	0.219900	0.925410
C51	C5	0.526800	0.265300	0.939550
H21	H2	0.737600	0.430700	0.938300
C61	C6	0.489100	0.249300	0.956170
H31	H3	0.762400	0.489200	0.967300
N11	N1	0.421900	0.199700	0.956450
C71	C7	0.755100	0.598500	0.943720
H41	H4	0.755800	0.640800	0.945500
C81	C8	0.729000	0.563800	0.927030
H51	H5	0.718700	0.584800	0.917100
C91	C9	0.550100	0.142700	0.865050
C101	C10	0.501700	0.073300	0.868690
H61	H6	0.480700	0.059200	0.880600
C111	C11	0.485900	0.027100	0.854590
H71	H7	0.456000	0.979900	0.857400
N21	N2	0.509000	0.042600	0.837120
C121	C12	0.553500	0.106700	0.833830
H81	H8	0.574300	0.119200	0.822000
C131	C13	0.571900	0.157900	0.847200
H91	H9	0.600300	0.204700	0.843800
Ag21	Ag2	0.030220	0.520950	0.315040
O31	O3	0.257100	0.632070	0.238940
C141	C14	0.210270	0.570730	0.240940
O41	O4	0.412120	0.699510	0.208310
C151	C15	0.482970	0.679230	0.229130
H101	H10	0.528370	0.689430	0.232130
C161	C16	0.469870	0.704430	0.212660
C171	C17	0.167770	0.553230	0.258740
C181	C18	0.193470	0.598630	0.272880
H111	H11	0.404270	0.764030	0.271630
C191	C19	0.155770	0.582630	0.289500
H121	H12	0.429070	0.822530	0.300630
N31	N3	0.088570	0.533030	0.289780
C201	C20	0.421770	0.931830	0.277050
H131	H13	0.422470	0.974130	0.278830
C211	C21	0.395670	0.897130	0.260360
H141	H14	0.385370	0.918130	0.250430
C221	C22	0.216770	0.476030	0.198380
C231	C23	0.168370	0.406630	0.202020
H151	H15	0.147370	0.392530	0.213930
C241	C24	0.152570	0.360430	0.187920
H161	H16	0.122670	0.313230	0.190730
N41	N4	0.175670	0.375930	0.170450
C251	C25	0.220170	0.440030	0.167160
H171	H17	0.240970	0.452530	0.155330
C261	C26	0.238570	0.491230	0.180530
H181	H18	0.266970	0.538030	0.177130
Ag31	Ag3	0.696880	0.854290	0.648380
O51	O5	0.923760	0.965410	0.572280
C271	C27	0.876930	0.904070	0.574280
O61	O6	0.078780	0.032850	0.541650
C281	C28	0.149630	0.012570	0.562470
H191	H19	0.195030	0.022770	0.565470
C291	C29	0.136530	0.037770	0.546000
C301	C30	0.834430	0.886570	0.592080
C311	C31	0.860130	0.931970	0.606220
H201	H20	0.070930	0.097370	0.604970
C321	C32	0.822430	0.915970	0.622840
H211	H21	0.095730	0.155870	0.633970
N51	N5	0.755230	0.866370	0.623120
C331	C33	0.088430	0.265170	0.610390
H221	H22	0.089130	0.307470	0.612170
C341	C34	0.062330	0.230470	0.593700
H231	H23	0.052030	0.251470	0.583770
C351	C35	0.883430	0.809370	0.531720
C361	C36	0.835030	0.739970	0.535360
H241	H24	0.814030	0.725870	0.547270
C371	C37	0.819230	0.693770	0.521260
H251	H25	0.789330	0.646570	0.524070
N61	N6	0.842330	0.709270	0.503790
C381	C38	0.886830	0.773370	0.500500
H261	H26	0.907630	0.785870	0.488670
C391	C39	0.905230	0.824570	0.513870
H271	H27	0.933630	0.871370	0.510470
Ag41	Ag4	0.812380	0.175930	0.981710
O71	O7	0.701260	0.291690	0.905610
C401	C40	0.762600	0.306200	0.907610
O81	O8	0.633820	0.379270	0.874980
C411	C41	0.654100	0.470400	0.895800
H281	H28	0.643900	0.505600	0.898800
C421	C42	0.628900	0.432100	0.879330
C431	C43	0.780100	0.281200	0.925410
C441	C44	0.734700	0.261500	0.939550
H291	H29	0.569300	0.306900	0.938300
C451	C45	0.750700	0.239800	0.956170
H301	H30	0.510800	0.273200	0.967300
N71	N7	0.800300	0.222200	0.956450
C461	C46	0.401500	0.156600	0.943720
H311	H31	0.359200	0.115000	0.945500
C471	C47	0.436200	0.165200	0.927030
H321	H32	0.415200	0.133900	0.917100
C481	C48	0.857300	0.407400	0.865050
C491	C49	0.926700	0.428400	0.868690
H331	H33	0.940800	0.421500	0.880600
C501	C50	0.972900	0.458800	0.854590
H341	H34	0.020100	0.476100	0.857400
N81	N8	0.957400	0.466400	0.837120
C511	C51	0.893300	0.446800	0.833830
H351	H35	0.880800	0.455100	0.822000
C521	C52	0.842100	0.414000	0.847200
H361	H36	0.795300	0.395600	0.843800
Ag51	Ag5	0.479050	0.509260	0.315040
O91	O9	0.367930	0.625020	0.238940
C531	C53	0.429270	0.639530	0.240940
O101	O10	0.300490	0.712600	0.208310
C541	C54	0.320770	0.803730	0.229130
H371	H37	0.310570	0.838930	0.232130
C551	C55	0.295570	0.765430	0.212660
C561	C56	0.446770	0.614530	0.258740
C571	C57	0.401370	0.594830	0.272880
H381	H38	0.235970	0.640230	0.271630
C581	C58	0.417370	0.573130	0.289500
H391	H39	0.177470	0.606530	0.300630
N91	N9	0.466970	0.555530	0.289780
C591	C59	0.068170	0.489930	0.277050
H401	H40	0.025870	0.448330	0.278830
C601	C60	0.102870	0.498530	0.260360
H411	H41	0.081870	0.467230	0.250430
C611	C61	0.523970	0.740730	0.198380
C621	C62	0.593370	0.761730	0.202020
H421	H42	0.607470	0.754830	0.213930
C631	C63	0.639570	0.792130	0.187920
H431	H43	0.686770	0.809430	0.190730
N101	N10	0.624070	0.799730	0.170450
C641	C64	0.559970	0.780130	0.167160
H441	H44	0.547470	0.788430	0.155330
C651	C65	0.508770	0.747330	0.180530
H451	H45	0.461970	0.728930	0.177130
Ag61	Ag6	0.145710	0.842600	0.648380
O111	O11	0.034590	0.958360	0.572280
C661	C66	0.095930	0.972870	0.574280
O121	O12	0.967150	0.045940	0.541650
C671	C67	0.987430	0.137070	0.562470
H461	H46	0.977230	0.172270	0.565470
C681	C68	0.962230	0.098770	0.546000
C691	C69	0.113430	0.947870	0.592080
C701	C70	0.068030	0.928170	0.606220
H471	H47	0.902630	0.973570	0.604970
C711	C71	0.084030	0.906470	0.622840
H481	H48	0.844130	0.939870	0.633970
N111	N11	0.133630	0.888870	0.623120
C721	C72	0.734830	0.823270	0.610390
H491	H49	0.692530	0.781670	0.612170
C731	C73	0.769530	0.831870	0.593700
H501	H50	0.748530	0.800570	0.583770
C741	C74	0.190630	0.074070	0.531720
C751	C75	0.260030	0.095070	0.535360
H511	H51	0.274130	0.088170	0.547270
C761	C76	0.306230	0.125470	0.521260
H521	H52	0.353430	0.142770	0.524070
N121	N12	0.290730	0.133070	0.503790
C771	C77	0.226630	0.113470	0.500500
H531	H53	0.214130	0.121770	0.488670
C781	C78	0.175430	0.080670	0.513870
H541	H54	0.128630	0.062270	0.510470
Ag71	Ag7	0.824070	0.636450	0.981710
O131	O13	0.708310	0.409570	0.905610
C791	C79	0.693800	0.456400	0.907610
O141	O14	0.620730	0.254550	0.874980
C801	C80	0.529600	0.183700	0.895800
H551	H55	0.494400	0.138300	0.898800
C811	C81	0.567900	0.196800	0.879330
C821	C82	0.718800	0.498900	0.925410
C831	C83	0.738500	0.473200	0.939550
H561	H56	0.693100	0.262400	0.938300
C841	C84	0.760200	0.510900	0.956170
H571	H57	0.726800	0.237600	0.967300
N131	N13	0.777800	0.578100	0.956450
C851	C85	0.843400	0.244900	0.943720
H581	H58	0.885000	0.244200	0.945500
C861	C86	0.834800	0.271000	0.927030
H591	H59	0.866100	0.281300	0.917100
C871	C87	0.592600	0.449900	0.865050
C881	C88	0.571600	0.498300	0.868690
H601	H60	0.578500	0.519300	0.880600
C891	C89	0.541200	0.514100	0.854590
H611	H61	0.523900	0.544000	0.857400
N141	N14	0.533600	0.491000	0.837120
C901	C90	0.553200	0.446500	0.833830
H621	H62	0.544900	0.425700	0.822000
C911	C91	0.586000	0.428100	0.847200
H631	H63	0.604400	0.399700	0.843800
Ag81	Ag8	0.490740	0.969780	0.315040
O151	O15	0.374980	0.742900	0.238940
C921	C92	0.360470	0.789730	0.240940
O161	O16	0.287400	0.587880	0.208310
C931	C93	0.196270	0.517030	0.229130
H641	H64	0.161070	0.471630	0.232130
C941	C94	0.234570	0.530130	0.212660
C951	C95	0.385470	0.832230	0.258740
C961	C96	0.405170	0.806530	0.272880
H651	H65	0.359770	0.595730	0.271630
C971	C97	0.426870	0.844230	0.289500
H661	H66	0.393470	0.570930	0.300630
N151	N15	0.444470	0.911430	0.289780
C981	C98	0.510070	0.578230	0.277050
H671	H67	0.551670	0.577530	0.278830
C991	C99	0.501470	0.604330	0.260360
H681	H68	0.532770	0.614630	0.250430
C1001	C100	0.259270	0.783230	0.198380
C1011	C101	0.238270	0.831630	0.202020
H691	H69	0.245170	0.852630	0.213930
C1021	C102	0.207870	0.847430	0.187920
H701	H70	0.190570	0.877330	0.190730
N161	N16	0.200270	0.824330	0.170450
C1031	C103	0.219870	0.779830	0.167160
H711	H71	0.211570	0.759030	0.155330
C1041	C104	0.252670	0.761430	0.180530
H721	H72	0.271070	0.733030	0.177130
Ag91	Ag9	0.157400	0.303120	0.648380
O171	O17	0.041640	0.076240	0.572280
C1051	C105	0.027130	0.123070	0.574280
O181	O18	0.954060	0.921220	0.541650
C1061	C106	0.862930	0.850370	0.562470
H731	H73	0.827730	0.804970	0.565470
C1071	C107	0.901230	0.863470	0.546000
C1081	C108	0.052130	0.165570	0.592080
C1091	C109	0.071830	0.139870	0.606220
H741	H74	0.026430	0.929070	0.604970
C1101	C110	0.093530	0.177570	0.622840
H751	H75	0.060130	0.904270	0.633970
N171	N17	0.111130	0.244770	0.623120
C1111	C111	0.176730	0.911570	0.610390
H761	H76	0.218330	0.910870	0.612170
C1121	C112	0.168130	0.937670	0.593700
H771	H77	0.199430	0.947970	0.583770
C1131	C113	0.925930	0.116570	0.531720
C1141	C114	0.904930	0.164970	0.535360
H781	H78	0.911830	0.185970	0.547270
C1151	C115	0.874530	0.180770	0.521260
H791	H79	0.857230	0.210670	0.524070
N181	N18	0.866930	0.157670	0.503790
C1161	C116	0.886530	0.113170	0.500500
H801	H80	0.878230	0.092370	0.488670
C1171	C117	0.919330	0.094770	0.513870
H811	H81	0.937730	0.066370	0.510470
Ag101	Ag10	0.812380	0.636450	0.481710
O191	O19	0.701260	0.409570	0.405610
C1181	C118	0.762600	0.456400	0.407610
O201	O20	0.633820	0.254550	0.374980
C1191	C119	0.654100	0.183700	0.395800
H821	H82	0.643900	0.138300	0.398800
C1201	C120	0.628900	0.196800	0.379330
C1211	C121	0.780100	0.498900	0.425410
C1221	C122	0.734700	0.473200	0.439550
H831	H83	0.569300	0.262400	0.438300
C1231	C123	0.750700	0.510900	0.456170
H841	H84	0.510800	0.237600	0.467300
N191	N19	0.800300	0.578100	0.456450
C1241	C124	0.401500	0.244900	0.443720
H851	H85	0.359200	0.244200	0.445500
C1251	C125	0.436200	0.271000	0.427030
H861	H86	0.415200	0.281300	0.417100
C1261	C126	0.857300	0.449900	0.365050
C1271	C127	0.926700	0.498300	0.368690
H871	H87	0.940800	0.519300	0.380600
C1281	C128	0.972900	0.514100	0.354590
H881	H88	0.020100	0.544000	0.357400
N201	N20	0.957400	0.491000	0.337120
C1291	C129	0.893300	0.446500	0.333830
H891	H89	0.880800	0.425700	0.322000
C1301	C130	0.842100	0.428100	0.347200
H901	H90	0.795300	0.399700	0.343800
Ag111	Ag11	0.479050	0.969780	0.815040
O211	O21	0.367930	0.742900	0.738940
C1311	C131	0.429270	0.789730	0.740940
O221	O22	0.300490	0.587880	0.708310
C1321	C132	0.320770	0.517030	0.729130
H911	H91	0.310570	0.471630	0.732130
C1331	C133	0.295570	0.530130	0.712660
C1341	C134	0.446770	0.832230	0.758740
C1351	C135	0.401370	0.806530	0.772880
H921	H92	0.235970	0.595730	0.771630
C1361	C136	0.417370	0.844230	0.789500
H931	H93	0.177470	0.570930	0.800630
N211	N21	0.466970	0.911430	0.789780
C1371	C137	0.068170	0.578230	0.777050
H941	H94	0.025870	0.577530	0.778830
C1381	C138	0.102870	0.604330	0.760360
H951	H95	0.081870	0.614630	0.750430
C1391	C139	0.523970	0.783230	0.698380
C1401	C140	0.593370	0.831630	0.702020
H961	H96	0.607470	0.852630	0.713930
C1411	C141	0.639570	0.847430	0.687920
H971	H97	0.686770	0.877330	0.690730
N221	N22	0.624070	0.824330	0.670450
C1421	C142	0.559970	0.779830	0.667160
H981	H98	0.547470	0.759030	0.655330
C1431	C143	0.508770	0.761430	0.680530
H991	H99	0.461970	0.733030	0.677130
Ag121	Ag12	0.145710	0.303120	0.148380
O231	O23	0.034590	0.076240	0.072280
C1441	C144	0.095930	0.123070	0.074280
O241	O24	0.967150	0.921220	0.041650
C1451	C145	0.987430	0.850370	0.062470
H1001	H100	0.977230	0.804970	0.065470
C1461	C146	0.962230	0.863470	0.046000
C1471	C147	0.113430	0.165570	0.092080
C1481	C148	0.068030	0.139870	0.106220
H1011	H101	0.902630	0.929070	0.104970
C1491	C149	0.084030	0.177570	0.122840
H1021	H102	0.844130	0.904270	0.133970
N231	N23	0.133630	0.244770	0.123120
C1501	C150	0.734830	0.911570	0.110390
H1031	H103	0.692530	0.910870	0.112170
C1511	C151	0.769530	0.937670	0.093700
H1041	H104	0.748530	0.947970	0.083770
C1521	C152	0.190630	0.116570	0.031720
C1531	C153	0.260030	0.164970	0.035360
H1051	H105	0.274130	0.185970	0.047270
C1541	C154	0.306230	0.180770	0.021260
H1061	H106	0.353430	0.210670	0.024070
N241	N24	0.290730	0.157670	0.003790
C1551	C155	0.226630	0.113170	0.000500
H1071	H107	0.214130	0.092370	0.988670
C1561	C156	0.175430	0.094770	0.013870
H1081	H108	0.128630	0.066370	0.010470
Ag131	Ag13	0.824070	0.187620	0.481710
O251	O25	0.708310	0.298740	0.405610
C1571	C157	0.693800	0.237400	0.407610
O261	O26	0.620730	0.366180	0.374980
C1581	C158	0.529600	0.345900	0.395800
H1091	H109	0.494400	0.356100	0.398800
C1591	C159	0.567900	0.371100	0.379330
C1601	C160	0.718800	0.219900	0.425410
C1611	C161	0.738500	0.265300	0.439550
H1101	H110	0.693100	0.430700	0.438300
C1621	C162	0.760200	0.249300	0.456170
H1111	H111	0.726800	0.489200	0.467300
N251	N25	0.777800	0.199700	0.456450
C1631	C163	0.843400	0.598500	0.443720
H1121	H112	0.885000	0.640800	0.445500
C1641	C164	0.834800	0.563800	0.427030
H1131	H113	0.866100	0.584800	0.417100
C1651	C165	0.592600	0.142700	0.365050
C1661	C166	0.571600	0.073300	0.368690
H1141	H114	0.578500	0.059200	0.380600
C1671	C167	0.541200	0.027100	0.354590
H1151	H115	0.523900	0.979900	0.357400
N261	N26	0.533600	0.042600	0.337120
C1681	C168	0.553200	0.106700	0.333830
H1161	H116	0.544900	0.119200	0.322000
C1691	C169	0.586000	0.157900	0.347200
H1171	H117	0.604400	0.204700	0.343800
Ag141	Ag14	0.490740	0.520950	0.815040
O271	O27	0.374980	0.632070	0.738940
C1701	C170	0.360470	0.570730	0.740940
O281	O28	0.287400	0.699510	0.708310
C1711	C171	0.196270	0.679230	0.729130
H1181	H118	0.161070	0.689430	0.732130
C1721	C172	0.234570	0.704430	0.712660
C1731	C173	0.385470	0.553230	0.758740
C1741	C174	0.405170	0.598630	0.772880
H1191	H119	0.359770	0.764030	0.771630
C1751	C175	0.426870	0.582630	0.789500
H1201	H120	0.393470	0.822530	0.800630
N271	N27	0.444470	0.533030	0.789780
C1761	C176	0.510070	0.931830	0.777050
H1211	H121	0.551670	0.974130	0.778830
C1771	C177	0.501470	0.897130	0.760360
H1221	H122	0.532770	0.918130	0.750430
C1781	C178	0.259270	0.476030	0.698380
C1791	C179	0.238270	0.406630	0.702020
H1231	H123	0.245170	0.392530	0.713930
C1801	C180	0.207870	0.360430	0.687920
H1241	H124	0.190570	0.313230	0.690730
N281	N28	0.200270	0.375930	0.670450
C1811	C181	0.219870	0.440030	0.667160
H1251	H125	0.211570	0.452530	0.655330
C1821	C182	0.252670	0.491230	0.680530
H1261	H126	0.271070	0.538030	0.677130
Ag151	Ag15	0.157400	0.854290	0.148380
O291	O29	0.041640	0.965410	0.072280
C1831	C183	0.027130	0.904070	0.074280
O301	O30	0.954060	0.032850	0.041650
C1841	C184	0.862930	0.012570	0.062470
H1271	H127	0.827730	0.022770	0.065470
C1851	C185	0.901230	0.037770	0.046000
C1861	C186	0.052130	0.886570	0.092080
C1871	C187	0.071830	0.931970	0.106220
H1281	H128	0.026430	0.097370	0.104970
C1881	C188	0.093530	0.915970	0.122840
H1291	H129	0.060130	0.155870	0.133970
N291	N29	0.111130	0.866370	0.123120
C1891	C189	0.176730	0.265170	0.110390
H1301	H130	0.218330	0.307470	0.112170
C1901	C190	0.168130	0.230470	0.093700
H1311	H131	0.199430	0.251470	0.083770
C1911	C191	0.925930	0.809370	0.031720
C1921	C192	0.904930	0.739970	0.035360
H1321	H132	0.911830	0.725870	0.047270
C1931	C193	0.874530	0.693770	0.021260
H1331	H133	0.857230	0.646570	0.024070
N301	N30	0.866930	0.709270	0.003790
C1941	C194	0.886530	0.773370	0.000500
H1341	H134	0.878230	0.785870	0.988670
C1951	C195	0.919330	0.824570	0.013870
H1351	H135	0.937730	0.871370	0.010470
Ag161	Ag16	0.363550	0.175930	0.481710
O311	O31	0.590430	0.291690	0.405610
C1961	C196	0.543600	0.306200	0.407610
O321	O32	0.745450	0.379270	0.374980
C1971	C197	0.816300	0.470400	0.395800
H1361	H136	0.861700	0.505600	0.398800
C1981	C198	0.803200	0.432100	0.379330
C1991	C199	0.501100	0.281200	0.425410
C2001	C200	0.526800	0.261500	0.439550
H1371	H137	0.737600	0.306900	0.438300
C2011	C201	0.489100	0.239800	0.456170
H1381	H138	0.762400	0.273200	0.467300
N311	N31	0.421900	0.222200	0.456450
C2021	C202	0.755100	0.156600	0.443720
H1391	H139	0.755800	0.115000	0.445500
C2031	C203	0.729000	0.165200	0.427030
H1401	H140	0.718700	0.133900	0.417100
C2041	C204	0.550100	0.407400	0.365050
C2051	C205	0.501700	0.428400	0.368690
H1411	H141	0.480700	0.421500	0.380600
C2061	C206	0.485900	0.458800	0.354590
H1421	H142	0.456000	0.476100	0.357400
N321	N32	0.509000	0.466400	0.337120
C2071	C207	0.553500	0.446800	0.333830
H1431	H143	0.574300	0.455100	0.322000
C2081	C208	0.571900	0.414000	0.347200
H1441	H144	0.600300	0.395600	0.343800
Ag171	Ag17	0.030220	0.509260	0.815040
O331	O33	0.257100	0.625020	0.738940
C2091	C209	0.210270	0.639530	0.740940
O341	O34	0.412120	0.712600	0.708310
C2101	C210	0.482970	0.803730	0.729130
H1451	H145	0.528370	0.838930	0.732130
C2111	C211	0.469870	0.765430	0.712660
C2121	C212	0.167770	0.614530	0.758740
C2131	C213	0.193470	0.594830	0.772880
H1461	H146	0.404270	0.640230	0.771630
C2141	C214	0.155770	0.573130	0.789500
H1471	H147	0.429070	0.606530	0.800630
N331	N33	0.088570	0.555530	0.789780
C2151	C215	0.421770	0.489930	0.777050
H1481	H148	0.422470	0.448330	0.778830
C2161	C216	0.395670	0.498530	0.760360
H1491	H149	0.385370	0.467230	0.750430
C2171	C217	0.216770	0.740730	0.698380
C2181	C218	0.168370	0.761730	0.702020
H1501	H150	0.147370	0.754830	0.713930
C2191	C219	0.152570	0.792130	0.687920
H1511	H151	0.122670	0.809430	0.690730
N341	N34	0.175670	0.799730	0.670450
C2201	C220	0.220170	0.780130	0.667160
H1521	H152	0.240970	0.788430	0.655330
C2211	C221	0.238570	0.747330	0.680530
H1531	H153	0.266970	0.728930	0.677130
Ag181	Ag18	0.696880	0.842600	0.148380
O351	O35	0.923760	0.958360	0.072280
C2221	C222	0.876930	0.972870	0.074280
O361	O36	0.078780	0.045940	0.041650
C2231	C223	0.149630	0.137070	0.062470
H1541	H154	0.195030	0.172270	0.065470
C2241	C224	0.136530	0.098770	0.046000
C2251	C225	0.834430	0.947870	0.092080
C2261	C226	0.860130	0.928170	0.106220
H1551	H155	0.070930	0.973570	0.104970
C2271	C227	0.822430	0.906470	0.122840
H1561	H156	0.095730	0.939870	0.133970
N351	N35	0.755230	0.888870	0.123120
C2281	C228	0.088430	0.823270	0.110390
H1571	H157	0.089130	0.781670	0.112170
C2291	C229	0.062330	0.831870	0.093700
H1581	H158	0.052030	0.800570	0.083770
C2301	C230	0.883430	0.074070	0.031720
C2311	C231	0.835030	0.095070	0.035360
H1591	H159	0.814030	0.088170	0.047270
C2321	C232	0.819230	0.125470	0.021260
H1601	H160	0.789330	0.142770	0.024070
N361	N36	0.842330	0.133070	0.003790
C2331	C233	0.886830	0.113470	0.000500
H1611	H161	0.907630	0.121770	0.988670
C2341	C234	0.905230	0.080670	0.013870
H1621	H162	0.933630	0.062270	0.010470
Al11	Al1	0.666670	0.333330	0.890060
Al21	Al2	0.333330	0.666670	0.223390
Al31	Al3	0.000000	0.000000	0.556730
Al41	Al4	0.666670	0.333330	0.390060
Al51	Al5	0.333330	0.666670	0.723390
Al61	Al6	0.000000	0.000000	0.056730
Ag191	Ag19	0.328170	0.190640	0.885180
O371	O37	0.589900	0.297300	0.818250
C2351	C235	0.530400	0.243200	0.816310
O381	O38	0.743400	0.367600	0.787070
C2361	C236	0.803900	0.317500	0.801610
H1631	H163	0.841900	0.310100	0.800600
C2371	C237	0.795300	0.357600	0.788740
C2381	C238	0.480800	0.227900	0.831730
C2391	C239	0.505300	0.260300	0.848440
H1641	H164	0.737100	0.446800	0.850300
C2401	C240	0.459000	0.248100	0.862580
H1651	H165	0.797000	0.524300	0.873900
N371	N37	0.393700	0.204400	0.861110
C2411	C241	0.802400	0.630100	0.844690
H1661	H166	0.822100	0.678400	0.843300
C2421	C242	0.768700	0.590700	0.830390
H1671	H167	0.759400	0.609200	0.819700
C2431	C243	0.544100	0.155800	0.773230
C2441	C244	0.487300	0.090700	0.773120
H1681	H168	0.460900	0.073100	0.784100
C2451	C245	0.467900	0.050000	0.757120
H1691	H169	0.424000	0.009500	0.756600
N381	N38	0.510700	0.067600	0.742410
C2461	C246	0.563100	0.127900	0.741660
H1701	H170	0.589900	0.141200	0.730700
C2471	C247	0.584000	0.177500	0.756670
H1711	H171	0.622600	0.222400	0.755500
Ag201	Ag20	0.994840	0.523970	0.218510
O391	O39	0.256570	0.630630	0.151580
C2481	C248	0.197070	0.576530	0.149640
O401	O40	0.410070	0.700930	0.120400
C2491	C249	0.470570	0.650830	0.134940
H1721	H172	0.508570	0.643430	0.133930
C2501	C250	0.461970	0.690930	0.122070
C2511	C251	0.147470	0.561230	0.165060
C2521	C252	0.171970	0.593630	0.181770
H1731	H173	0.403770	0.780130	0.183630
C2531	C253	0.125670	0.581430	0.195910
H1741	H174	0.463670	0.857630	0.207230
N391	N39	0.060370	0.537730	0.194440
C2541	C254	0.469070	0.963430	0.178020
H1751	H175	0.488770	0.011730	0.176630
C2551	C255	0.435370	0.924030	0.163720
H1761	H176	0.426070	0.942530	0.153030
C2561	C256	0.210770	0.489130	0.106560
C2571	C257	0.153970	0.424030	0.106450
H1771	H177	0.127570	0.406430	0.117430
C2581	C258	0.134570	0.383330	0.090450
H1781	H178	0.090670	0.342830	0.089930
N401	N40	0.177370	0.400930	0.075740
C2591	C259	0.229770	0.461230	0.074990
H1791	H179	0.256570	0.474530	0.064030
C2601	C260	0.250670	0.510830	0.090000
H1801	H180	0.289270	0.555730	0.088830
Ag211	Ag21	0.661500	0.857310	0.551850
O411	O41	0.923230	0.963970	0.484920
C2611	C261	0.863730	0.909870	0.482980
O421	O42	0.076730	0.034270	0.453740
C2621	C262	0.137230	0.984170	0.468280
H1811	H181	0.175230	0.976770	0.467270
C2631	C263	0.128630	0.024270	0.455410
C2641	C264	0.814130	0.894570	0.498400
C2651	C265	0.838630	0.926970	0.515110
H1821	H182	0.070430	0.113470	0.516970
C2661	C266	0.792330	0.914770	0.529250
H1831	H183	0.130330	0.190970	0.540570
N411	N41	0.727030	0.871070	0.527780
C2671	C267	0.135730	0.296770	0.511360
H1841	H184	0.155430	0.345070	0.509970
C2681	C268	0.102030	0.257370	0.497060
H1851	H185	0.092730	0.275870	0.486370
C2691	C269	0.877430	0.822470	0.439900
C2701	C270	0.820630	0.757370	0.439790
H1861	H186	0.794230	0.739770	0.450770
C2711	C271	0.801230	0.716670	0.423790
H1871	H187	0.757330	0.676170	0.423270
N421	N42	0.844030	0.734270	0.409080
C2721	C272	0.896430	0.794570	0.408330
H1881	H188	0.923230	0.807870	0.397370
C2731	C273	0.917330	0.844170	0.423340
H1891	H189	0.955930	0.889070	0.422170
Ag221	Ag22	0.809360	0.137530	0.885180
O431	O43	0.702700	0.292600	0.818250
C2741	C274	0.756800	0.287200	0.816310
O441	O44	0.632400	0.375800	0.787070
C2751	C275	0.682500	0.486400	0.801610
H1901	H190	0.689900	0.531800	0.800600
C2761	C276	0.642400	0.437700	0.788740
C2771	C277	0.772100	0.252900	0.831730
C2781	C278	0.739700	0.245000	0.848440
H1911	H191	0.553200	0.290300	0.850300
C2791	C279	0.751900	0.210900	0.862580
H1921	H192	0.475700	0.272700	0.873900
N431	N43	0.795600	0.189300	0.861110
C2801	C280	0.369900	0.172300	0.844690
H1931	H193	0.321600	0.143700	0.843300
C2811	C281	0.409300	0.178000	0.830390
H1941	H194	0.390800	0.150200	0.819700
C2821	C282	0.844200	0.388300	0.773230
C2831	C283	0.909300	0.396600	0.773120
H1951	H195	0.926900	0.387800	0.784100
C2841	C284	0.950000	0.417900	0.757120
H1961	H196	0.990500	0.414500	0.756600
N441	N44	0.932400	0.443100	0.742410
C2851	C285	0.872100	0.435200	0.741660
H1971	H197	0.858800	0.448700	0.730700
C2861	C286	0.822500	0.406500	0.756670
H1981	H198	0.777600	0.400200	0.755500
Ag231	Ag23	0.476030	0.470860	0.218510
O451	O45	0.369370	0.625930	0.151580
C2871	C287	0.423470	0.620530	0.149640
O461	O46	0.299070	0.709130	0.120400
C2881	C288	0.349170	0.819730	0.134940
H1991	H199	0.356570	0.865130	0.133930
C2891	C289	0.309070	0.771030	0.122070
C2901	C290	0.438770	0.586230	0.165060
C2911	C291	0.406370	0.578330	0.181770
H2001	H200	0.219870	0.623630	0.183630
C2921	C292	0.418570	0.544230	0.195910
H2011	H201	0.142370	0.606030	0.207230
N451	N45	0.462270	0.522630	0.194440
C2931	C293	0.036570	0.505630	0.178020
H2021	H202	0.988270	0.477030	0.176630
C2941	C294	0.075970	0.511330	0.163720
H2031	H203	0.057470	0.483530	0.153030
C2951	C295	0.510870	0.721630	0.106560
C2961	C296	0.575970	0.729930	0.106450
H2041	H204	0.593570	0.721130	0.117430
C2971	C297	0.616670	0.751230	0.090450
H2051	H205	0.657170	0.747830	0.089930
N461	N46	0.599070	0.776430	0.075740
C2981	C298	0.538770	0.768530	0.074990
H2061	H206	0.525470	0.782030	0.064030
C2991	C299	0.489170	0.739830	0.090000
H2071	H207	0.444270	0.733530	0.088830
Ag241	Ag24	0.142690	0.804200	0.551850
O471	O47	0.036030	0.959270	0.484920
C3001	C300	0.090130	0.953870	0.482980
O481	O48	0.965730	0.042470	0.453740
C3011	C301	0.015830	0.153070	0.468280
H2081	H208	0.023230	0.198470	0.467270
C3021	C302	0.975730	0.104370	0.455410
C3031	C303	0.105430	0.919570	0.498400
C3041	C304	0.073030	0.911670	0.515110
H2091	H209	0.886530	0.956970	0.516970
C3051	C305	0.085230	0.877570	0.529250
H2101	H210	0.809030	0.939370	0.540570
N471	N47	0.128930	0.855970	0.527780
C3061	C306	0.703230	0.838970	0.511360
H2111	H211	0.654930	0.810370	0.509970
C3071	C307	0.742630	0.844670	0.497060
H2121	H212	0.724130	0.816870	0.486370
C3081	C308	0.177530	0.054970	0.439900
C3091	C309	0.242630	0.063270	0.439790
H2131	H213	0.260230	0.054470	0.450770
C3101	C310	0.283330	0.084570	0.423790
H2141	H214	0.323830	0.081170	0.423270
N481	N48	0.265730	0.109770	0.409080
C3111	C311	0.205430	0.101870	0.408330
H2151	H215	0.192130	0.115370	0.397370
C3121	C312	0.155830	0.073170	0.423340
H2161	H216	0.110930	0.066870	0.422170
Ag251	Ag25	0.862470	0.671830	0.885180
O491	O49	0.707400	0.410100	0.818250
C3131	C313	0.712800	0.469600	0.816310
O501	O50	0.624200	0.256600	0.787070
C3141	C314	0.513600	0.196100	0.801610
H2171	H217	0.468200	0.158100	0.800600
C3151	C315	0.562300	0.204700	0.788740
C3161	C316	0.747100	0.519200	0.831730
C3171	C317	0.755000	0.494700	0.848440
H2181	H218	0.709700	0.262900	0.850300
C3181	C318	0.789100	0.541000	0.862580
H2191	H219	0.727300	0.203000	0.873900
N491	N49	0.810700	0.606300	0.861110
C3191	C319	0.827700	0.197600	0.844690
H2201	H220	0.856300	0.177900	0.843300
C3201	C320	0.822000	0.231300	0.830390
H2211	H221	0.849800	0.240600	0.819700
C3211	C321	0.611700	0.455900	0.773230
C3221	C322	0.603400	0.512700	0.773120
H2221	H222	0.612200	0.539100	0.784100
C3231	C323	0.582100	0.532100	0.757120
H2231	H223	0.585500	0.576000	0.756600
N501	N50	0.556900	0.489300	0.742410
C3241	C324	0.564800	0.436900	0.741660
H2241	H224	0.551300	0.410100	0.730700
C3251	C325	0.593500	0.416000	0.756670
H2251	H225	0.599800	0.377400	0.755500
Ag261	Ag26	0.529140	0.005160	0.218510
O511	O51	0.374070	0.743430	0.151580
C3261	C326	0.379470	0.802930	0.149640
O521	O52	0.290870	0.589930	0.120400
C3271	C327	0.180270	0.529430	0.134940
H2261	H226	0.134870	0.491430	0.133930
C3281	C328	0.228970	0.538030	0.122070
C3291	C329	0.413770	0.852530	0.165060
C3301	C330	0.421670	0.828030	0.181770
H2271	H227	0.376370	0.596230	0.183630
C3311	C331	0.455770	0.874330	0.195910
H2281	H228	0.393970	0.536330	0.207230
N511	N51	0.477370	0.939630	0.194440
C3321	C332	0.494370	0.530930	0.178020
H2291	H229	0.522970	0.511230	0.176630
C3331	C333	0.488670	0.564630	0.163720
H2301	H230	0.516470	0.573930	0.153030
C3341	C334	0.278370	0.789230	0.106560
C3351	C335	0.270070	0.846030	0.106450
H2311	H231	0.278870	0.872430	0.117430
C3361	C336	0.248770	0.865430	0.090450
H2321	H232	0.252170	0.909330	0.089930
N521	N52	0.223570	0.822630	0.075740
C3371	C337	0.231470	0.770230	0.074990
H2331	H233	0.217970	0.743430	0.064030
C3381	C338	0.260170	0.749330	0.090000
H2341	H234	0.266470	0.710730	0.088830
Ag271	Ag27	0.195800	0.338500	0.551850
O531	O53	0.040730	0.076770	0.484920
C3391	C339	0.046130	0.136270	0.482980
O541	O54	0.957530	0.923270	0.453740
C3401	C340	0.846930	0.862770	0.468280
H2351	H235	0.801530	0.824770	0.467270
C3411	C341	0.895630	0.871370	0.455410
C3421	C342	0.080430	0.185870	0.498400
C3431	C343	0.088330	0.161370	0.515110
H2361	H236	0.043030	0.929570	0.516970
C3441	C344	0.122430	0.207670	0.529250
H2371	H237	0.060630	0.869670	0.540570
N531	N53	0.144030	0.272970	0.527780
C3451	C345	0.161030	0.864270	0.511360
H2381	H238	0.189630	0.844570	0.509970
C3461	C346	0.155330	0.897970	0.497060
H2391	H239	0.183130	0.907270	0.486370
C3471	C347	0.945030	0.122570	0.439900
C3481	C348	0.936730	0.179370	0.439790
H2401	H240	0.945530	0.205770	0.450770
C3491	C349	0.915430	0.198770	0.423790
H2411	H241	0.918830	0.242670	0.423270
N541	N54	0.890230	0.155970	0.409080
C3501	C350	0.898130	0.103570	0.408330
H2421	H242	0.884630	0.076770	0.397370
C3511	C351	0.926830	0.082670	0.423340
H2431	H243	0.933130	0.044070	0.422170
Ag281	Ag28	0.809360	0.671830	0.385180
O551	O55	0.702700	0.410100	0.318250
C3521	C352	0.756800	0.469600	0.316310
O561	O56	0.632400	0.256600	0.287070
C3531	C353	0.682500	0.196100	0.301610
H2441	H244	0.689900	0.158100	0.300600
C3541	C354	0.642400	0.204700	0.288740
C3551	C355	0.772100	0.519200	0.331730
C3561	C356	0.739700	0.494700	0.348440
H2451	H245	0.553200	0.262900	0.350300
C3571	C357	0.751900	0.541000	0.362580
H2461	H246	0.475700	0.203000	0.373900
N551	N55	0.795600	0.606300	0.361110
C3581	C358	0.369900	0.197600	0.344690
H2471	H247	0.321600	0.177900	0.343300
C3591	C359	0.409300	0.231300	0.330390
H2481	H248	0.390800	0.240600	0.319700
C3601	C360	0.844200	0.455900	0.273230
C3611	C361	0.909300	0.512700	0.273120
H2491	H249	0.926900	0.539100	0.284100
C3621	C362	0.950000	0.532100	0.257120
H2501	H250	0.990500	0.576000	0.256600
N561	N56	0.932400	0.489300	0.242410
C3631	C363	0.872100	0.436900	0.241660
H2511	H251	0.858800	0.410100	0.230700
C3641	C364	0.822500	0.416000	0.256670
H2521	H252	0.777600	0.377400	0.255500
Ag291	Ag29	0.476030	0.005160	0.718510
O571	O57	0.369370	0.743430	0.651580
C3651	C365	0.423470	0.802930	0.649640
O581	O58	0.299070	0.589930	0.620400
C3661	C366	0.349170	0.529430	0.634940
H2531	H253	0.356570	0.491430	0.633930
C3671	C367	0.309070	0.538030	0.622070
C3681	C368	0.438770	0.852530	0.665060
C3691	C369	0.406370	0.828030	0.681770
H2541	H254	0.219870	0.596230	0.683630
C3701	C370	0.418570	0.874330	0.695910
H2551	H255	0.142370	0.536330	0.707230
N571	N57	0.462270	0.939630	0.694440
C3711	C371	0.036570	0.530930	0.678020
H2561	H256	0.988270	0.511230	0.676630
C3721	C372	0.075970	0.564630	0.663720
H2571	H257	0.057470	0.573930	0.653030
C3731	C373	0.510870	0.789230	0.606560
C3741	C374	0.575970	0.846030	0.606450
H2581	H258	0.593570	0.872430	0.617430
C3751	C375	0.616670	0.865430	0.590450
H2591	H259	0.657170	0.909330	0.589930
N581	N58	0.599070	0.822630	0.575740
C3761	C376	0.538770	0.770230	0.574990
H2601	H260	0.525470	0.743430	0.564030
C3771	C377	0.489170	0.749330	0.590000
H2611	H261	0.444270	0.710730	0.588830
Ag301	Ag30	0.142690	0.338500	0.051850
O591	O59	0.036030	0.076770	0.984920
C3781	C378	0.090130	0.136270	0.982980
O601	O60	0.965730	0.923270	0.953740
C3791	C379	0.015830	0.862770	0.968280
H2621	H262	0.023230	0.824770	0.967270
C3801	C380	0.975730	0.871370	0.955410
C3811	C381	0.105430	0.185870	0.998400
C3821	C382	0.073030	0.161370	0.015110
H2631	H263	0.886530	0.929570	0.016970
C3831	C383	0.085230	0.207670	0.029250
H2641	H264	0.809030	0.869670	0.040570
N591	N59	0.128930	0.272970	0.027780
C3841	C384	0.703230	0.864270	0.011360
H2651	H265	0.654930	0.844570	0.009970
C3851	C385	0.742630	0.897970	0.997060
H2661	H266	0.724130	0.907270	0.986370
C3861	C386	0.177530	0.122570	0.939900
C3871	C387	0.242630	0.179370	0.939790
H2671	H267	0.260230	0.205770	0.950770
C3881	C388	0.283330	0.198770	0.923790
H2681	H268	0.323830	0.242670	0.923270
N601	N60	0.265730	0.155970	0.909080
C3891	C389	0.205430	0.103570	0.908330
H2691	H269	0.192130	0.076770	0.897370
C3901	C390	0.155830	0.082670	0.923340
H2701	H270	0.110930	0.044070	0.922170
Ag311	Ag31	0.862470	0.190640	0.385180
O611	O61	0.707400	0.297300	0.318250
C3911	C391	0.712800	0.243200	0.316310
O621	O62	0.624200	0.367600	0.287070
C3921	C392	0.513600	0.317500	0.301610
H2711	H271	0.468200	0.310100	0.300600
C3931	C393	0.562300	0.357600	0.288740
C3941	C394	0.747100	0.227900	0.331730
C3951	C395	0.755000	0.260300	0.348440
H2721	H272	0.709700	0.446800	0.350300
C3961	C396	0.789100	0.248100	0.362580
H2731	H273	0.727300	0.524300	0.373900
N611	N61	0.810700	0.204400	0.361110
C3971	C397	0.827700	0.630100	0.344690
H2741	H274	0.856300	0.678400	0.343300
C3981	C398	0.822000	0.590700	0.330390
H2751	H275	0.849800	0.609200	0.319700
C3991	C399	0.611700	0.155800	0.273230
C4001	C400	0.603400	0.090700	0.273120
H2761	H276	0.612200	0.073100	0.284100
C4011	C401	0.582100	0.050000	0.257120
H2771	H277	0.585500	0.009500	0.256600
N621	N62	0.556900	0.067600	0.242410
C4021	C402	0.564800	0.127900	0.241660
H2781	H278	0.551300	0.141200	0.230700
C4031	C403	0.593500	0.177500	0.256670
H2791	H279	0.599800	0.222400	0.255500
Ag321	Ag32	0.529140	0.523970	0.718510
O631	O63	0.374070	0.630630	0.651580
C4041	C404	0.379470	0.576530	0.649640
O641	O64	0.290870	0.700930	0.620400
C4051	C405	0.180270	0.650830	0.634940
H2801	H280	0.134870	0.643430	0.633930
C4061	C406	0.228970	0.690930	0.622070
C4071	C407	0.413770	0.561230	0.665060
C4081	C408	0.421670	0.593630	0.681770
H2811	H281	0.376370	0.780130	0.683630
C4091	C409	0.455770	0.581430	0.695910
H2821	H282	0.393970	0.857630	0.707230
N631	N63	0.477370	0.537730	0.694440
C4101	C410	0.494370	0.963430	0.678020
H2831	H283	0.522970	0.011730	0.676630
C4111	C411	0.488670	0.924030	0.663720
H2841	H284	0.516470	0.942530	0.653030
C4121	C412	0.278370	0.489130	0.606560
C4131	C413	0.270070	0.424030	0.606450
H2851	H285	0.278870	0.406430	0.617430
C4141	C414	0.248770	0.383330	0.590450
H2861	H286	0.252170	0.342830	0.589930
N641	N64	0.223570	0.400930	0.575740
C4151	C415	0.231470	0.461230	0.574990
H2871	H287	0.217970	0.474530	0.564030
C4161	C416	0.260170	0.510830	0.590000
H2881	H288	0.266470	0.555730	0.588830
Ag331	Ag33	0.195800	0.857310	0.051850
O651	O65	0.040730	0.963970	0.984920
C4171	C417	0.046130	0.909870	0.982980
O661	O66	0.957530	0.034270	0.953740
C4181	C418	0.846930	0.984170	0.968280
H2891	H289	0.801530	0.976770	0.967270
C4191	C419	0.895630	0.024270	0.955410
C4201	C420	0.080430	0.894570	0.998400
C4211	C421	0.088330	0.926970	0.015110
H2901	H290	0.043030	0.113470	0.016970
C4221	C422	0.122430	0.914770	0.029250
H2911	H291	0.060630	0.190970	0.040570
N651	N65	0.144030	0.871070	0.027780
C4231	C423	0.161030	0.296770	0.011360
H2921	H292	0.189630	0.345070	0.009970
C4241	C424	0.155330	0.257370	0.997060
H2931	H293	0.183130	0.275870	0.986370
C4251	C425	0.945030	0.822470	0.939900
C4261	C426	0.936730	0.757370	0.939790
H2941	H294	0.945530	0.739770	0.950770
C4271	C427	0.915430	0.716670	0.923790
H2951	H295	0.918830	0.676170	0.923270
N661	N66	0.890230	0.734270	0.909080
C4281	C428	0.898130	0.794570	0.908330
H2961	H296	0.884630	0.807870	0.897370
C4291	C429	0.926830	0.844170	0.923340
H2971	H297	0.933130	0.889070	0.922170
Ag341	Ag34	0.328170	0.137530	0.385180
O671	O67	0.589900	0.292600	0.318250
C4301	C430	0.530400	0.287200	0.316310
O681	O68	0.743400	0.375800	0.287070
C4311	C431	0.803900	0.486400	0.301610
H2981	H298	0.841900	0.531800	0.300600
C4321	C432	0.795300	0.437700	0.288740
C4331	C433	0.480800	0.252900	0.331730
C4341	C434	0.505300	0.245000	0.348440
H2991	H299	0.737100	0.290300	0.350300
C4351	C435	0.459000	0.210900	0.362580
H3001	H300	0.797000	0.272700	0.373900
N671	N67	0.393700	0.189300	0.361110
C4361	C436	0.802400	0.172300	0.344690
H3011	H301	0.822100	0.143700	0.343300
C4371	C437	0.768700	0.178000	0.330390
H3021	H302	0.759400	0.150200	0.319700
C4381	C438	0.544100	0.388300	0.273230
C4391	C439	0.487300	0.396600	0.273120
H3031	H303	0.460900	0.387800	0.284100
C4401	C440	0.467900	0.417900	0.257120
H3041	H304	0.424000	0.414500	0.256600
N681	N68	0.510700	0.443100	0.242410
C4411	C441	0.563100	0.435200	0.241660
H3051	H305	0.589900	0.448700	0.230700
C4421	C442	0.584000	0.406500	0.256670
H3061	H306	0.622600	0.400200	0.255500
Ag351	Ag35	0.994840	0.470860	0.718510
O691	O69	0.256570	0.625930	0.651580
C4431	C443	0.197070	0.620530	0.649640
O701	O70	0.410070	0.709130	0.620400
C4441	C444	0.470570	0.819730	0.634940
H3071	H307	0.508570	0.865130	0.633930
C4451	C445	0.461970	0.771030	0.622070
C4461	C446	0.147470	0.586230	0.665060
C4471	C447	0.171970	0.578330	0.681770
H3081	H308	0.403770	0.623630	0.683630
C4481	C448	0.125670	0.544230	0.695910
H3091	H309	0.463670	0.606030	0.707230
N691	N69	0.060370	0.522630	0.694440
C4491	C449	0.469070	0.505630	0.678020
H3101	H310	0.488770	0.477030	0.676630
C4501	C450	0.435370	0.511330	0.663720
H3111	H311	0.426070	0.483530	0.653030
C4511	C451	0.210770	0.721630	0.606560
C4521	C452	0.153970	0.729930	0.606450
H3121	H312	0.127570	0.721130	0.617430
C4531	C453	0.134570	0.751230	0.590450
H3131	H313	0.090670	0.747830	0.589930
N701	N70	0.177370	0.776430	0.575740
C4541	C454	0.229770	0.768530	0.574990
H3141	H314	0.256570	0.782030	0.564030
C4551	C455	0.250670	0.739830	0.590000
H3151	H315	0.289270	0.733530	0.588830
Ag361	Ag36	0.661500	0.804200	0.051850
O711	O71	0.923230	0.959270	0.984920
C4561	C456	0.863730	0.953870	0.982980
O721	O72	0.076730	0.042470	0.953740
C4571	C457	0.137230	0.153070	0.968280
H3161	H316	0.175230	0.198470	0.967270
C4581	C458	0.128630	0.104370	0.955410
C4591	C459	0.814130	0.919570	0.998400
C4601	C460	0.838630	0.911670	0.015110
H3171	H317	0.070430	0.956970	0.016970
C4611	C461	0.792330	0.877570	0.029250
H3181	H318	0.130330	0.939370	0.040570
N711	N71	0.727030	0.855970	0.027780
C4621	C462	0.135730	0.838970	0.011360
H3191	H319	0.155430	0.810370	0.009970
C4631	C463	0.102030	0.844670	0.997060
H3201	H320	0.092730	0.816870	0.986370
C4641	C464	0.877430	0.054970	0.939900
C4651	C465	0.820630	0.063270	0.939790
H3211	H321	0.794230	0.054470	0.950770
C4661	C466	0.801230	0.084570	0.923790
H3221	H322	0.757330	0.081170	0.923270
N721	N72	0.844030	0.109770	0.909080
C4671	C467	0.896430	0.101870	0.908330
H3231	H323	0.923230	0.115370	0.897370
C4681	C468	0.917330	0.073170	0.923340
H3241	H324	0.955930	0.066870	0.922170
Al71	Al7	0.666670	0.333330	0.802770
Al81	Al8	0.333330	0.666670	0.136100
Al91	Al9	0.000000	0.000000	0.469440
Al101	Al10	0.666670	0.333330	0.302770
Al111	Al11	0.333330	0.666670	0.636100
Al121	Al12	0.000000	0.000000	0.969440
Ag371	Ag37	0.302630	0.137120	0.783100
O731	O73	0.588090	0.284910	0.722930
C4691	C469	0.530900	0.231000	0.718740
O741	O74	0.743110	0.378100	0.691970
C4701	C470	0.805900	0.324000	0.701990
H3251	H325	0.839900	0.312400	0.698900
C4711	C471	0.791900	0.366000	0.689680
C4721	C472	0.473800	0.208100	0.732570
C4731	C473	0.488700	0.244800	0.749570
H3261	H326	0.748400	0.466400	0.752000
C4741	C474	0.439700	0.226600	0.762030
H3271	H327	0.801600	0.549900	0.773300
N731	N73	0.373700	0.172400	0.759330
C4751	C475	0.774900	0.639500	0.744400
H3281	H328	0.779900	0.683700	0.742700
C4761	C476	0.742400	0.588700	0.731050
H3291	H329	0.725200	0.599300	0.720300
C4771	C477	0.563400	0.164800	0.673690
C4781	C478	0.498300	0.128300	0.664470
H3301	H330	0.457900	0.122100	0.670500
C4791	C479	0.494600	0.103300	0.647550
H3311	H331	0.456300	0.094300	0.640000
N741	N74	0.543000	0.089900	0.640470
C4801	C480	0.604100	0.122400	0.649400
H3321	H332	0.641400	0.118700	0.644500
C4811	C481	0.614800	0.161000	0.665480
H3331	H333	0.659600	0.185100	0.670700
Ag381	Ag38	0.969300	0.470450	0.116430
O751	O75	0.254760	0.618240	0.056260
C4821	C482	0.197570	0.564330	0.052070
O761	O76	0.409780	0.711430	0.025300
C4831	C483	0.472570	0.657330	0.035320
H3341	H334	0.506570	0.645730	0.032230
C4841	C484	0.458570	0.699330	0.023010
C4851	C485	0.140470	0.541430	0.065900
C4861	C486	0.155370	0.578130	0.082900
H3351	H335	0.415070	0.799730	0.085330
C4871	C487	0.106370	0.559930	0.095360
H3361	H336	0.468270	0.883230	0.106630
N751	N75	0.040370	0.505730	0.092660
C4881	C488	0.441570	0.972830	0.077730
H3371	H337	0.446570	0.017030	0.076030
C4891	C489	0.409070	0.922030	0.064380
H3381	H338	0.391870	0.932630	0.053630
C4901	C490	0.230070	0.498130	0.007020
C4911	C491	0.164970	0.461630	0.997800
H3391	H339	0.124570	0.455430	0.003830
C4921	C492	0.161270	0.436630	0.980880
H3401	H340	0.122970	0.427630	0.973330
N761	N76	0.209670	0.423230	0.973800
C4931	C493	0.270770	0.455730	0.982730
H3411	H341	0.308070	0.452030	0.977830
C4941	C494	0.281470	0.494330	0.998810
H3421	H342	0.326270	0.518430	0.004030
Ag391	Ag39	0.635960	0.803790	0.449770
O771	O77	0.921420	0.951580	0.389600
C4951	C495	0.864230	0.897670	0.385410
O781	O78	0.076440	0.044770	0.358640
C4961	C496	0.139230	0.990670	0.368660
H3431	H343	0.173230	0.979070	0.365570
C4971	C497	0.125230	0.032670	0.356350
C4981	C498	0.807130	0.874770	0.399240
C4991	C499	0.822030	0.911470	0.416240
H3441	H344	0.081730	0.133070	0.418670
C5001	C500	0.773030	0.893270	0.428700
H3451	H345	0.134930	0.216570	0.439970
N771	N77	0.707030	0.839070	0.426000
C5011	C501	0.108230	0.306170	0.411070
H3461	H346	0.113230	0.350370	0.409370
C5021	C502	0.075730	0.255370	0.397720
H3471	H347	0.058530	0.265970	0.386970
C5031	C503	0.896730	0.831470	0.340360
C5041	C504	0.831630	0.794970	0.331140
H3481	H348	0.791230	0.788770	0.337170
C5051	C505	0.827930	0.769970	0.314220
H3491	H349	0.789630	0.760970	0.306670
N781	N78	0.876330	0.756570	0.307140
C5061	C506	0.937430	0.789070	0.316070
H3501	H350	0.974730	0.785370	0.311170
C5071	C507	0.948130	0.827670	0.332150
H3511	H351	0.992930	0.851770	0.337370
Ag401	Ag40	0.862880	0.165510	0.783100
O791	O79	0.715090	0.303180	0.722930
C5081	C508	0.769000	0.299900	0.718740
O801	O80	0.621900	0.365010	0.691970
C5091	C509	0.676000	0.481900	0.701990
H3521	H352	0.687600	0.527500	0.698900
C5101	C510	0.634000	0.425900	0.689680
C5111	C511	0.791900	0.265700	0.732570
C5121	C512	0.755200	0.243900	0.749570
H3531	H353	0.533600	0.282000	0.752000
C5131	C513	0.773400	0.213100	0.762030
H3541	H354	0.450100	0.251700	0.773300
N791	N79	0.827600	0.201300	0.759330
C5141	C514	0.360500	0.135400	0.744400
H3551	H355	0.316300	0.096200	0.742700
C5151	C515	0.411300	0.153700	0.731050
H3561	H356	0.400700	0.125900	0.720300
C5161	C516	0.835200	0.398600	0.673690
C5171	C517	0.871700	0.370000	0.664470
H3571	H357	0.877900	0.335800	0.670500
C5181	C518	0.896700	0.391300	0.647550
H3581	H358	0.905700	0.362000	0.640000
N801	N80	0.910100	0.453100	0.640470
C5191	C519	0.877600	0.481700	0.649400
H3591	H359	0.881300	0.522700	0.644500
C5201	C520	0.839000	0.453800	0.665480
H3601	H360	0.814900	0.474500	0.670700
Ag411	Ag41	0.529550	0.498840	0.116430
O811	O81	0.381760	0.636510	0.056260
C5211	C521	0.435670	0.633230	0.052070
O821	O82	0.288570	0.698340	0.025300
C5221	C522	0.342670	0.815230	0.035320
H3611	H361	0.354270	0.860830	0.032230
C5231	C523	0.300670	0.759230	0.023010
C5241	C524	0.458570	0.599030	0.065900
C5251	C525	0.421870	0.577230	0.082900
H3621	H362	0.200270	0.615330	0.085330
C5261	C526	0.440070	0.546430	0.095360
H3631	H363	0.116770	0.585030	0.106630
N811	N81	0.494270	0.534630	0.092660
C5271	C527	0.027170	0.468730	0.077730
H3641	H364	0.982970	0.429530	0.076030
C5281	C528	0.077970	0.487030	0.064380
H3651	H365	0.067370	0.459230	0.053630
C5291	C529	0.501870	0.731930	0.007020
C5301	C530	0.538370	0.703330	0.997800
H3661	H366	0.544570	0.669130	0.003830
C5311	C531	0.563370	0.724630	0.980880
H3671	H367	0.572370	0.695330	0.973330
N821	N82	0.576770	0.786430	0.973800
C5321	C532	0.544270	0.815030	0.982730
H3681	H368	0.547970	0.856030	0.977830
C5331	C533	0.505670	0.787130	0.998810
H3691	H369	0.481570	0.807830	0.004030
Ag421	Ag42	0.196210	0.832180	0.449770
O831	O83	0.048420	0.969850	0.389600
C5341	C534	0.102330	0.966570	0.385410
O841	O84	0.955230	0.031680	0.358640
C5351	C535	0.009330	0.148570	0.368660
H3701	H370	0.020930	0.194170	0.365570
C5361	C536	0.967330	0.092570	0.356350
C5371	C537	0.125230	0.932370	0.399240
C5381	C538	0.088530	0.910570	0.416240
H3711	H371	0.866930	0.948670	0.418670
C5391	C539	0.106730	0.879770	0.428700
H3721	H372	0.783430	0.918370	0.439970
N831	N83	0.160930	0.867970	0.426000
C5401	C540	0.693830	0.802070	0.411070
H3731	H373	0.649630	0.762870	0.409370
C5411	C541	0.744630	0.820370	0.397720
H3741	H374	0.734030	0.792570	0.386970
C5421	C542	0.168530	0.065270	0.340360
C5431	C543	0.205030	0.036670	0.331140
H3751	H375	0.211230	0.002470	0.337170
C5441	C544	0.230030	0.057970	0.314220
H3761	H376	0.239030	0.028670	0.306670
N841	N84	0.243430	0.119770	0.307140
C5451	C545	0.210930	0.148370	0.316070
H3771	H377	0.214630	0.189370	0.311170
C5461	C546	0.172330	0.120470	0.332150
H3781	H378	0.148230	0.141170	0.337370
Ag431	Ag43	0.834490	0.697370	0.783100
O851	O85	0.696820	0.411910	0.722930
C5471	C547	0.700100	0.469100	0.718740
O861	O86	0.634990	0.256890	0.691970
C5481	C548	0.518100	0.194100	0.701990
H3791	H379	0.472500	0.160100	0.698900
C5491	C549	0.574100	0.208100	0.689680
C5501	C550	0.734300	0.526200	0.732570
C5511	C551	0.756100	0.511300	0.749570
H3801	H380	0.718000	0.251600	0.752000
C5521	C552	0.786900	0.560300	0.762030
H3811	H381	0.748300	0.198400	0.773300
N851	N85	0.798700	0.626300	0.759330
C5531	C553	0.864600	0.225100	0.744400
H3821	H382	0.903800	0.220100	0.742700
C5541	C554	0.846300	0.257600	0.731050
H3831	H383	0.874100	0.274800	0.720300
C5551	C555	0.601400	0.436600	0.673690
C5561	C556	0.630000	0.501700	0.664470
H3841	H384	0.664200	0.542100	0.670500
C5571	C557	0.608700	0.505400	0.647550
H3851	H385	0.638000	0.543700	0.640000
N861	N86	0.546900	0.457000	0.640470
C5581	C558	0.518300	0.395900	0.649400
H3861	H386	0.477300	0.358600	0.644500
C5591	C559	0.546200	0.385200	0.665480
H3871	H387	0.525500	0.340400	0.670700
Ag441	Ag44	0.501160	0.030700	0.116430
O871	O87	0.363490	0.745240	0.056260
C5601	C560	0.366770	0.802430	0.052070
O881	O88	0.301660	0.590220	0.025300
C5611	C561	0.184770	0.527430	0.035320
H3881	H388	0.139170	0.493430	0.032230
C5621	C562	0.240770	0.541430	0.023010
C5631	C563	0.400970	0.859530	0.065900
C5641	C564	0.422770	0.844630	0.082900
H3891	H389	0.384670	0.584930	0.085330
C5651	C565	0.453570	0.893630	0.095360
H3901	H390	0.414970	0.531730	0.106630
N871	N87	0.465370	0.959630	0.092660
C5661	C566	0.531270	0.558430	0.077730
H3911	H391	0.570470	0.553430	0.076030
C5671	C567	0.512970	0.590930	0.064380
H3921	H392	0.540770	0.608130	0.053630
C5681	C568	0.268070	0.769930	0.007020
C5691	C569	0.296670	0.835030	0.997800
H3931	H393	0.330870	0.875430	0.003830
C5701	C570	0.275370	0.838730	0.980880
H3941	H394	0.304670	0.877030	0.973330
N881	N88	0.213570	0.790330	0.973800
C5711	C571	0.184970	0.729230	0.982730
H3951	H395	0.143970	0.691930	0.977830
C5721	C572	0.212870	0.718530	0.998810
H3961	H396	0.192170	0.673730	0.004030
Ag451	Ag45	0.167820	0.364040	0.449770
O891	O89	0.030150	0.078580	0.389600
C5731	C573	0.033430	0.135770	0.385410
O901	O90	0.968320	0.923560	0.358640
C5741	C574	0.851430	0.860770	0.368660
H3971	H397	0.805830	0.826770	0.365570
C5751	C575	0.907430	0.874770	0.356350
C5761	C576	0.067630	0.192870	0.399240
C5771	C577	0.089430	0.177970	0.416240
H3981	H398	0.051330	0.918270	0.418670
C5781	C578	0.120230	0.226970	0.428700
H3991	H399	0.081630	0.865070	0.439970
N891	N89	0.132030	0.292970	0.426000
C5791	C579	0.197930	0.891770	0.411070
H4001	H400	0.237130	0.886770	0.409370
C5801	C580	0.179630	0.924270	0.397720
H4011	H401	0.207430	0.941470	0.386970
C5811	C581	0.934730	0.103270	0.340360
C5821	C582	0.963330	0.168370	0.331140
H4021	H402	0.997530	0.208770	0.337170
C5831	C583	0.942030	0.172070	0.314220
H4031	H403	0.971330	0.210370	0.306670
N901	N90	0.880230	0.123670	0.307140
C5841	C584	0.851630	0.062570	0.316070
H4041	H404	0.810630	0.025270	0.311170
C5851	C585	0.879530	0.051870	0.332150
H4051	H405	0.858830	0.007070	0.337370
Ag461	Ag46	0.862880	0.697370	0.283100
O911	O91	0.715090	0.411910	0.222930
C5861	C586	0.769000	0.469100	0.218740
O921	O92	0.621900	0.256890	0.191970
C5871	C587	0.676000	0.194100	0.201990
H4061	H406	0.687600	0.160100	0.198900
C5881	C588	0.634000	0.208100	0.189680
C5891	C589	0.791900	0.526200	0.232570
C5901	C590	0.755200	0.511300	0.249570
H4071	H407	0.533600	0.251600	0.252000
C5911	C591	0.773400	0.560300	0.262030
H4081	H408	0.450100	0.198400	0.273300
N911	N91	0.827600	0.626300	0.259330
C5921	C592	0.360500	0.225100	0.244400
H4091	H409	0.316300	0.220100	0.242700
C5931	C593	0.411300	0.257600	0.231050
H4101	H410	0.400700	0.274800	0.220300
C5941	C594	0.835200	0.436600	0.173690
C5951	C595	0.871700	0.501700	0.164470
H4111	H411	0.877900	0.542100	0.170500
C5961	C596	0.896700	0.505400	0.147550
H4121	H412	0.905700	0.543700	0.140000
N921	N92	0.910100	0.457000	0.140470
C5971	C597	0.877600	0.395900	0.149400
H4131	H413	0.881300	0.358600	0.144500
C5981	C598	0.839000	0.385200	0.165480
H4141	H414	0.814900	0.340400	0.170700
Ag471	Ag47	0.529550	0.030700	0.616430
O931	O93	0.381760	0.745240	0.556260
C5991	C599	0.435670	0.802430	0.552070
O941	O94	0.288570	0.590220	0.525300
C6001	C600	0.342670	0.527430	0.535320
H4151	H415	0.354270	0.493430	0.532230
C6011	C601	0.300670	0.541430	0.523010
C6021	C602	0.458570	0.859530	0.565900
C6031	C603	0.421870	0.844630	0.582900
H4161	H416	0.200270	0.584930	0.585330
C6041	C604	0.440070	0.893630	0.595360
H4171	H417	0.116770	0.531730	0.606630
N931	N93	0.494270	0.959630	0.592660
C6051	C605	0.027170	0.558430	0.577730
H4181	H418	0.982970	0.553430	0.576030
C6061	C606	0.077970	0.590930	0.564380
H4191	H419	0.067370	0.608130	0.553630
C6071	C607	0.501870	0.769930	0.507020
C6081	C608	0.538370	0.835030	0.497800
H4201	H420	0.544570	0.875430	0.503830
C6091	C609	0.563370	0.838730	0.480880
H4211	H421	0.572370	0.877030	0.473330
N941	N94	0.576770	0.790330	0.473800
C6101	C610	0.544270	0.729230	0.482730
H4221	H422	0.547970	0.691930	0.477830
C6111	C611	0.505670	0.718530	0.498810
H4231	H423	0.481570	0.673730	0.504030
Ag481	Ag48	0.196210	0.364040	0.949770
O951	O95	0.048420	0.078580	0.889600
C6121	C612	0.102330	0.135770	0.885410
O961	O96	0.955230	0.923560	0.858640
C6131	C613	0.009330	0.860770	0.868660
H4241	H424	0.020930	0.826770	0.865570
C6141	C614	0.967330	0.874770	0.856350
C6151	C615	0.125230	0.192870	0.899240
C6161	C616	0.088530	0.177970	0.916240
H4251	H425	0.866930	0.918270	0.918670
C6171	C617	0.106730	0.226970	0.928700
H4261	H426	0.783430	0.865070	0.939970
N951	N95	0.160930	0.292970	0.926000
C6181	C618	0.693830	0.891770	0.911070
H4271	H427	0.649630	0.886770	0.909370
C6191	C619	0.744630	0.924270	0.897720
H4281	H428	0.734030	0.941470	0.886970
C6201	C620	0.168530	0.103270	0.840360
C6211	C621	0.205030	0.168370	0.831140
H4291	H429	0.211230	0.208770	0.837170
C6221	C622	0.230030	0.172070	0.814220
H4301	H430	0.239030	0.210370	0.806670
N961	N96	0.243430	0.123670	0.807140
C6231	C623	0.210930	0.062570	0.816070
H4311	H431	0.214630	0.025270	0.811170
C6241	C624	0.172330	0.051870	0.832150
H4321	H432	0.148230	0.007070	0.837370
Ag491	Ag49	0.834490	0.137120	0.283100
O971	O97	0.696820	0.284910	0.222930
C6251	C625	0.700100	0.231000	0.218740
O981	O98	0.634990	0.378100	0.191970
C6261	C626	0.518100	0.324000	0.201990
H4331	H433	0.472500	0.312400	0.198900
C6271	C627	0.574100	0.366000	0.189680
C6281	C628	0.734300	0.208100	0.232570
C6291	C629	0.756100	0.244800	0.249570
H4341	H434	0.718000	0.466400	0.252000
C6301	C630	0.786900	0.226600	0.262030
H4351	H435	0.748300	0.549900	0.273300
N971	N97	0.798700	0.172400	0.259330
C6311	C631	0.864600	0.639500	0.244400
H4361	H436	0.903800	0.683700	0.242700
C6321	C632	0.846300	0.588700	0.231050
H4371	H437	0.874100	0.599300	0.220300
C6331	C633	0.601400	0.164800	0.173690
C6341	C634	0.630000	0.128300	0.164470
H4381	H438	0.664200	0.122100	0.170500
C6351	C635	0.608700	0.103300	0.147550
H4391	H439	0.638000	0.094300	0.140000
N981	N98	0.546900	0.089900	0.140470
C6361	C636	0.518300	0.122400	0.149400
H4401	H440	0.477300	0.118700	0.144500
C6371	C637	0.546200	0.161000	0.165480
H4411	H441	0.525500	0.185100	0.170700
Ag501	Ag50	0.501160	0.470450	0.616430
O991	O99	0.363490	0.618240	0.556260
C6381	C638	0.366770	0.564330	0.552070
O1001	O100	0.301660	0.711430	0.525300
C6391	C639	0.184770	0.657330	0.535320
H4421	H442	0.139170	0.645730	0.532230
C6401	C640	0.240770	0.699330	0.523010
C6411	C641	0.400970	0.541430	0.565900
C6421	C642	0.422770	0.578130	0.582900
H4431	H443	0.384670	0.799730	0.585330
C6431	C643	0.453570	0.559930	0.595360
H4441	H444	0.414970	0.883230	0.606630
N991	N99	0.465370	0.505730	0.592660
C6441	C644	0.531270	0.972830	0.577730
H4451	H445	0.570470	0.017030	0.576030
C6451	C645	0.512970	0.922030	0.564380
H4461	H446	0.540770	0.932630	0.553630
C6461	C646	0.268070	0.498130	0.507020
C6471	C647	0.296670	0.461630	0.497800
H4471	H447	0.330870	0.455430	0.503830
C6481	C648	0.275370	0.436630	0.480880
H4481	H448	0.304670	0.427630	0.473330
N1001	N100	0.213570	0.423230	0.473800
C6491	C649	0.184970	0.455730	0.482730
H4491	H449	0.143970	0.452030	0.477830
C6501	C650	0.212870	0.494330	0.498810
H4501	H450	0.192170	0.518430	0.504030
Ag511	Ag51	0.167820	0.803790	0.949770
O1011	O101	0.030150	0.951580	0.889600
C6511	C651	0.033430	0.897670	0.885410
O1021	O102	0.968320	0.044770	0.858640
C6521	C652	0.851430	0.990670	0.868660
H4511	H451	0.805830	0.979070	0.865570
C6531	C653	0.907430	0.032670	0.856350
C6541	C654	0.067630	0.874770	0.899240
C6551	C655	0.089430	0.911470	0.916240
H4521	H452	0.051330	0.133070	0.918670
C6561	C656	0.120230	0.893270	0.928700
H4531	H453	0.081630	0.216570	0.939970
N1011	N101	0.132030	0.839070	0.926000
C6571	C657	0.197930	0.306170	0.911070
H4541	H454	0.237130	0.350370	0.909370
C6581	C658	0.179630	0.255370	0.897720
H4551	H455	0.207430	0.265970	0.886970
C6591	C659	0.934730	0.831470	0.840360
C6601	C660	0.963330	0.794970	0.831140
H4561	H456	0.997530	0.788770	0.837170
C6611	C661	0.942030	0.769970	0.814220
H4571	H457	0.971330	0.760970	0.806670
N1021	N102	0.880230	0.756570	0.807140
C6621	C662	0.851630	0.789070	0.816070
H4581	H458	0.810630	0.785370	0.811170
C6631	C663	0.879530	0.827670	0.832150
H4591	H459	0.858830	0.851770	0.837370
Ag521	Ag52	0.302630	0.165510	0.283100
O1031	O103	0.588090	0.303180	0.222930
C6641	C664	0.530900	0.299900	0.218740
O1041	O104	0.743110	0.365010	0.191970
C6651	C665	0.805900	0.481900	0.201990
H4601	H460	0.839900	0.527500	0.198900
C6661	C666	0.791900	0.425900	0.189680
C6671	C667	0.473800	0.265700	0.232570
C6681	C668	0.488700	0.243900	0.249570
H4611	H461	0.748400	0.282000	0.252000
C6691	C669	0.439700	0.213100	0.262030
H4621	H462	0.801600	0.251700	0.273300
N1031	N103	0.373700	0.201300	0.259330
C6701	C670	0.774900	0.135400	0.244400
H4631	H463	0.779900	0.096200	0.242700
C6711	C671	0.742400	0.153700	0.231050
H4641	H464	0.725200	0.125900	0.220300
C6721	C672	0.563400	0.398600	0.173690
C6731	C673	0.498300	0.370000	0.164470
H4651	H465	0.457900	0.335800	0.170500
C6741	C674	0.494600	0.391300	0.147550
H4661	H466	0.456300	0.362000	0.140000
N1041	N104	0.543000	0.453100	0.140470
C6751	C675	0.604100	0.481700	0.149400
H4671	H467	0.641400	0.522700	0.144500
C6761	C676	0.614800	0.453800	0.165480
H4681	H468	0.659600	0.474500	0.170700
Ag531	Ag53	0.969300	0.498840	0.616430
O1051	O105	0.254760	0.636510	0.556260
C6771	C677	0.197570	0.633230	0.552070
O1061	O106	0.409780	0.698340	0.525300
C6781	C678	0.472570	0.815230	0.535320
H4691	H469	0.506570	0.860830	0.532230
C6791	C679	0.458570	0.759230	0.523010
C6801	C680	0.140470	0.599030	0.565900
C6811	C681	0.155370	0.577230	0.582900
H4701	H470	0.415070	0.615330	0.585330
C6821	C682	0.106370	0.546430	0.595360
H4711	H471	0.468270	0.585030	0.606630
N1051	N105	0.040370	0.534630	0.592660
C6831	C683	0.441570	0.468730	0.577730
H4721	H472	0.446570	0.429530	0.576030
C6841	C684	0.409070	0.487030	0.564380
H4731	H473	0.391870	0.459230	0.553630
C6851	C685	0.230070	0.731930	0.507020
C6861	C686	0.164970	0.703330	0.497800
H4741	H474	0.124570	0.669130	0.503830
C6871	C687	0.161270	0.724630	0.480880
H4751	H475	0.122970	0.695330	0.473330
N1061	N106	0.209670	0.786430	0.473800
C6881	C688	0.270770	0.815030	0.482730
H4761	H476	0.308070	0.856030	0.477830
C6891	C689	0.281470	0.787130	0.498810
H4771	H477	0.326270	0.807830	0.504030
Ag541	Ag54	0.635960	0.832180	0.949770
O1071	O107	0.921420	0.969850	0.889600
C6901	C690	0.864230	0.966570	0.885410
O1081	O108	0.076440	0.031680	0.858640
C6911	C691	0.139230	0.148570	0.868660
H4781	H478	0.173230	0.194170	0.865570
C6921	C692	0.125230	0.092570	0.856350
C6931	C693	0.807130	0.932370	0.899240
C6941	C694	0.822030	0.910570	0.916240
H4791	H479	0.081730	0.948670	0.918670
C6951	C695	0.773030	0.879770	0.928700
H4801	H480	0.134930	0.918370	0.939970
N1071	N107	0.707030	0.867970	0.926000
C6961	C696	0.108230	0.802070	0.911070
H4811	H481	0.113230	0.762870	0.909370
C6971	C697	0.075730	0.820370	0.897720
H4821	H482	0.058530	0.792570	0.886970
C6981	C698	0.896730	0.065270	0.840360
C6991	C699	0.831630	0.036670	0.831140
H4831	H483	0.791230	0.002470	0.837170
C7001	C700	0.827930	0.057970	0.814220
H4841	H484	0.789630	0.028670	0.806670
N1081	N108	0.876330	0.119770	0.807140
C7011	C701	0.937430	0.148370	0.816070
H4851	H485	0.974730	0.189370	0.811170
C7021	C702	0.948130	0.120470	0.832150
H4861	H486	0.992930	0.141170	0.837370
Al131	Al13	0.666670	0.333330	0.708120
Al141	Al14	0.333330	0.666670	0.041450
Al151	Al15	0.000000	0.000000	0.374790
Al161	Al16	0.666670	0.333330	0.208120
Al171	Al17	0.333330	0.666670	0.541450
Al181	Al18	0.000000	0.000000	0.874790
