data_YUXMUZ_clean_PM
_symmetry_space_group_name_H-M	'P1'
_cell_length_a	11.154000
_cell_length_b	7.792000
_cell_length_c	12.375000
_cell_angle_alpha	90.000000
_cell_angle_beta	90.000000
_cell_angle_gamma	90.000000
_symmetry_Int_Tables_number 1

loop_
_symmetry_equiv_pos_as_xyz
'x,y,z'

loop_
_atom_site_label
_atom_site_type_symbol
_atom_site_fract_x
_atom_site_fract_y
_atom_site_fract_z
Ag11	Ag1	0.201240	0.850450	0.500000
C11	C1	0.273800	0.570100	0.534300
C21	C2	0.285500	0.589100	0.426500
C31	C3	0.402800	0.632600	0.375600
C41	C4	0.521200	0.354600	0.398200
C51	C5	0.652600	0.380200	0.405500
C61	C6	0.720500	0.478700	0.339200
C71	C7	0.435800	0.440200	0.228100
N11	N1	0.459400	0.478900	0.328100
N21	N2	0.416600	0.408000	0.138400
H11	H1	0.202000	0.536000	0.560000
H21	H2	0.326000	0.594000	0.589000
H31	H3	0.216000	0.561000	0.390000
H41	H4	0.382000	0.712000	0.322000
H51	H5	0.482000	0.647000	0.406000
H61	H6	0.485000	0.356000	0.472000
H71	H7	0.493000	0.223000	0.368000
H81	H8	0.685000	0.309000	0.459000
H91	H9	0.807000	0.479000	0.339000
H101	H10	0.681000	0.536000	0.281000
Ag21	Ag2	0.798760	0.149550	0.000000
C81	C8	0.726200	0.429900	0.034300
C91	C9	0.714500	0.410900	0.926500
C101	C10	0.597200	0.367400	0.875600
C111	C11	0.478800	0.645400	0.898200
C121	C12	0.347400	0.619800	0.905500
C131	C13	0.279500	0.521300	0.839200
C141	C14	0.564200	0.559800	0.728100
N31	N3	0.540600	0.521100	0.828100
N41	N4	0.583400	0.592000	0.638400
H111	H11	0.798000	0.464000	0.060000
H121	H12	0.674000	0.406000	0.089000
H131	H13	0.784000	0.439000	0.890000
H141	H14	0.618000	0.288000	0.822000
H151	H15	0.518000	0.353000	0.906000
H161	H16	0.515000	0.644000	0.972000
H171	H17	0.507000	0.777000	0.868000
H181	H18	0.315000	0.691000	0.959000
H191	H19	0.193000	0.521000	0.839000
H201	H20	0.319000	0.464000	0.781000
Ag31	Ag3	0.701240	0.649550	0.500000
C151	C15	0.773800	0.929900	0.534300
C161	C16	0.785500	0.910900	0.426500
C171	C17	0.902800	0.867400	0.375600
C181	C18	0.021200	0.145400	0.398200
C191	C19	0.152600	0.119800	0.405500
C201	C20	0.220500	0.021300	0.339200
C211	C21	0.935800	0.059800	0.228100
N51	N5	0.959400	0.021100	0.328100
N61	N6	0.916600	0.092000	0.138400
H211	H21	0.702000	0.964000	0.560000
H221	H22	0.826000	0.906000	0.589000
H231	H23	0.716000	0.939000	0.390000
H241	H24	0.882000	0.788000	0.322000
H251	H25	0.982000	0.853000	0.406000
H261	H26	0.985000	0.144000	0.472000
H271	H27	0.993000	0.277000	0.368000
H281	H28	0.185000	0.191000	0.459000
H291	H29	0.307000	0.021000	0.339000
H301	H30	0.181000	0.964000	0.281000
Ag41	Ag4	0.298760	0.350450	0.000000
C221	C22	0.226200	0.070100	0.034300
C231	C23	0.214500	0.089100	0.926500
C241	C24	0.097200	0.132600	0.875600
C251	C25	0.978800	0.854600	0.898200
C261	C26	0.847400	0.880200	0.905500
C271	C27	0.779500	0.978700	0.839200
C281	C28	0.064200	0.940200	0.728100
N71	N7	0.040600	0.978900	0.828100
N81	N8	0.083400	0.908000	0.638400
H311	H31	0.298000	0.036000	0.060000
H321	H32	0.174000	0.094000	0.089000
H331	H33	0.284000	0.061000	0.890000
H341	H34	0.118000	0.212000	0.822000
H351	H35	0.018000	0.147000	0.906000
H361	H36	0.015000	0.856000	0.972000
H371	H37	0.007000	0.723000	0.868000
H381	H38	0.815000	0.809000	0.959000
H391	H39	0.693000	0.979000	0.839000
H401	H40	0.819000	0.036000	0.781000
