data_YUYGOQ_clean_PM
_symmetry_space_group_name_H-M	'P1'
_cell_length_a	14.583000
_cell_length_b	23.241000
_cell_length_c	15.633800
_cell_angle_alpha	90.000000
_cell_angle_beta	106.990000
_cell_angle_gamma	90.000000
_symmetry_Int_Tables_number 1

loop_
_symmetry_equiv_pos_as_xyz
'x,y,z'

loop_
_atom_site_label
_atom_site_type_symbol
_atom_site_fract_x
_atom_site_fract_y
_atom_site_fract_z
Cd11	Cd1	0.236370	0.437630	0.583750
Cd21	Cd2	0.258060	0.301060	0.696400
C11	C1	0.156200	0.536000	0.132200
C21	C2	0.237100	0.508900	0.186900
H11	H1	0.290000	0.502000	0.166500
C31	C3	0.238000	0.492100	0.272700
H21	H2	0.290200	0.471300	0.307300
C41	C4	0.166500	0.504800	0.307100
C51	C5	0.087000	0.533300	0.252100
H31	H3	0.035900	0.542500	0.273800
C61	C6	0.083400	0.547800	0.166300
H41	H4	0.029200	0.566400	0.130600
C71	C7	0.168500	0.487900	0.399800
C81	C8	0.185700	0.507600	0.991200
C91	C9	0.226800	0.524300	0.925700
H51	H5	0.235900	0.563200	0.916900
C101	C10	0.253900	0.484700	0.874400
H61	H6	0.281000	0.496900	0.830600
C111	C11	0.241700	0.426300	0.886000
C121	C12	0.201800	0.410900	0.949200
H71	H7	0.194500	0.371900	0.958600
C131	C13	0.170500	0.450000	0.001800
H81	H8	0.140100	0.437600	0.043100
C141	C14	0.266900	0.382700	0.825000
C151	C15	0.875100	0.720800	0.880800
C161	C16	0.953000	0.677400	0.920200
C171	C17	0.960900	0.627300	0.875800
H91	H9	0.919900	0.621100	0.818700
C181	C18	0.028300	0.586400	0.914400
H101	H10	0.032400	0.552900	0.883100
C191	C19	0.089400	0.594400	0.998500
C201	C20	0.085900	0.646200	0.039500
H111	H11	0.130900	0.653700	0.094200
C211	C21	0.020200	0.686200	0.003600
H121	H12	0.019000	0.720400	0.034300
C221	C22	0.842900	0.293400	0.663400
C231	C23	0.824400	0.313700	0.577400
H131	H13	0.764000	0.309100	0.536700
C241	C24	0.896400	0.341000	0.552100
H141	H14	0.883900	0.355200	0.494200
C251	C25	0.986800	0.347500	0.611700
C261	C26	0.001900	0.326600	0.696700
H151	H15	0.062100	0.330900	0.737800
C271	C27	0.931400	0.299500	0.723200
H161	H16	0.943800	0.285500	0.781200
C281	C28	0.060900	0.378610	0.582700
C291	C29	0.782700	0.211600	0.730800
C301	C30	0.852700	0.173300	0.719600
H171	H17	0.890700	0.183400	0.683400
C311	C31	0.865200	0.120500	0.762100
H181	H18	0.914300	0.096400	0.757500
C321	C32	0.806500	0.103700	0.810700
C331	C33	0.739000	0.141100	0.824100
H191	H19	0.700400	0.129500	0.858900
C341	C34	0.727500	0.194700	0.787300
H201	H20	0.683500	0.220100	0.799400
C351	C35	0.816800	0.044400	0.851100
C361	C36	0.676300	0.291500	0.666900
C371	C37	0.592900	0.259300	0.631800
H211	H21	0.597100	0.220300	0.619900
C381	C38	0.503100	0.285600	0.614400
H221	H22	0.447500	0.263800	0.593800
C391	C39	0.497100	0.343100	0.627900
C401	C40	0.579700	0.375400	0.660700
H231	H23	0.575700	0.414600	0.671100
C411	C41	0.668000	0.349200	0.677800
H241	H24	0.723200	0.371400	0.697200
C421	C42	0.401400	0.370600	0.610300
N11	N1	0.153700	0.550120	0.043200
N21	N2	0.766700	0.265270	0.689200
O11	O1	0.110900	0.515430	0.433200
O21	O2	0.223700	0.449600	0.438800
O31	O3	0.312800	0.397800	0.773900
O41	O4	0.237700	0.331200	0.828300
O51	O5	0.850100	0.754250	0.932300
O61	O6	0.837000	0.720150	0.798600
O71	O7	0.040300	0.405360	0.512400
O81	O8	0.146900	0.376120	0.634700
O91	O9	0.891200	0.016960	0.864200
O101	O10	0.740500	0.025320	0.866700
O111	O11	0.327800	0.341120	0.595400
O121	O12	0.396800	0.423560	0.611300
Cd31	Cd3	0.763630	0.937630	0.916250
Cd41	Cd4	0.741940	0.801060	0.803600
C431	C43	0.843800	0.036000	0.367800
C441	C44	0.762900	0.008900	0.313100
H251	H25	0.710000	0.002000	0.333500
C451	C45	0.762000	0.992100	0.227300
H261	H26	0.709800	0.971300	0.192700
C461	C46	0.833500	0.004800	0.192900
C471	C47	0.913000	0.033300	0.247900
H271	H27	0.964100	0.042500	0.226200
C481	C48	0.916600	0.047800	0.333700
H281	H28	0.970800	0.066400	0.369400
C491	C49	0.831500	0.987900	0.100200
C501	C50	0.814300	0.007600	0.508800
C511	C51	0.773200	0.024300	0.574300
H291	H29	0.764100	0.063200	0.583100
C521	C52	0.746100	0.984700	0.625600
H301	H30	0.719000	0.996900	0.669400
C531	C53	0.758300	0.926300	0.614000
C541	C54	0.798200	0.910900	0.550800
H311	H31	0.805500	0.871900	0.541400
C551	C55	0.829500	0.950000	0.498200
H321	H32	0.859900	0.937600	0.456900
C561	C56	0.733100	0.882700	0.675000
C571	C57	0.124900	0.220800	0.619200
C581	C58	0.047000	0.177400	0.579800
C591	C59	0.039100	0.127300	0.624200
H331	H33	0.080100	0.121100	0.681300
C601	C60	0.971700	0.086400	0.585600
H341	H34	0.967600	0.052900	0.616900
C611	C61	0.910600	0.094400	0.501500
C621	C62	0.914100	0.146200	0.460500
H351	H35	0.869100	0.153700	0.405800
C631	C63	0.979800	0.186200	0.496400
H361	H36	0.981000	0.220400	0.465700
C641	C64	0.157100	0.793400	0.836600
C651	C65	0.175600	0.813700	0.922600
H371	H37	0.236000	0.809100	0.963300
C661	C66	0.103600	0.841000	0.947900
H381	H38	0.116100	0.855200	0.005800
C671	C67	0.013200	0.847500	0.888300
C681	C68	0.998100	0.826600	0.803300
H391	H39	0.937900	0.830900	0.762200
C691	C69	0.068600	0.799500	0.776800
H401	H40	0.056200	0.785500	0.718800
C701	C70	0.939100	0.878610	0.917300
C711	C71	0.217300	0.711600	0.769200
C721	C72	0.147300	0.673300	0.780400
H411	H41	0.109300	0.683400	0.816600
C731	C73	0.134800	0.620500	0.737900
H421	H42	0.085700	0.596400	0.742500
C741	C74	0.193500	0.603700	0.689300
C751	C75	0.261000	0.641100	0.675900
H431	H43	0.299600	0.629500	0.641100
C761	C76	0.272500	0.694700	0.712700
H441	H44	0.316500	0.720100	0.700600
C771	C77	0.183200	0.544400	0.648900
C781	C78	0.323700	0.791500	0.833100
C791	C79	0.407100	0.759300	0.868200
H451	H45	0.402900	0.720300	0.880100
C801	C80	0.496900	0.785600	0.885600
H461	H46	0.552500	0.763800	0.906200
C811	C81	0.502900	0.843100	0.872100
C821	C82	0.420300	0.875400	0.839300
H471	H47	0.424300	0.914600	0.828900
C831	C83	0.332000	0.849200	0.822200
H481	H48	0.276800	0.871400	0.802800
C841	C84	0.598600	0.870600	0.889700
N31	N3	0.846300	0.050120	0.456800
N41	N4	0.233300	0.765270	0.810800
O131	O13	0.889100	0.015430	0.066800
O141	O14	0.776300	0.949600	0.061200
O151	O15	0.687200	0.897800	0.726100
O161	O16	0.762300	0.831200	0.671700
O171	O17	0.149900	0.254250	0.567700
O181	O18	0.163000	0.220150	0.701400
O191	O19	0.959700	0.905360	0.987600
O201	O20	0.853100	0.876120	0.865300
O211	O21	0.108800	0.516960	0.635800
O221	O22	0.259500	0.525320	0.633300
O231	O23	0.672200	0.841120	0.904600
O241	O24	0.603200	0.923560	0.888700
Cd51	Cd5	0.763630	0.562370	0.416250
Cd61	Cd6	0.741940	0.698940	0.303600
C851	C85	0.843800	0.464000	0.867800
C861	C86	0.762900	0.491100	0.813100
H491	H49	0.710000	0.498000	0.833500
C871	C87	0.762000	0.507900	0.727300
H501	H50	0.709800	0.528700	0.692700
C881	C88	0.833500	0.495200	0.692900
C891	C89	0.913000	0.466700	0.747900
H511	H51	0.964100	0.457500	0.726200
C901	C90	0.916600	0.452200	0.833700
H521	H52	0.970800	0.433600	0.869400
C911	C91	0.831500	0.512100	0.600200
C921	C92	0.814300	0.492400	0.008800
C931	C93	0.773200	0.475700	0.074300
H531	H53	0.764100	0.436800	0.083100
C941	C94	0.746100	0.515300	0.125600
H541	H54	0.719000	0.503100	0.169400
C951	C95	0.758300	0.573700	0.114000
C961	C96	0.798200	0.589100	0.050800
H551	H55	0.805500	0.628100	0.041400
C971	C97	0.829500	0.550000	0.998200
H561	H56	0.859900	0.562400	0.956900
C981	C98	0.733100	0.617300	0.175000
C991	C99	0.124900	0.279200	0.119200
C1001	C100	0.047000	0.322600	0.079800
C1011	C101	0.039100	0.372700	0.124200
H571	H57	0.080100	0.378900	0.181300
C1021	C102	0.971700	0.413600	0.085600
H581	H58	0.967600	0.447100	0.116900
C1031	C103	0.910600	0.405600	0.001500
C1041	C104	0.914100	0.353800	0.960500
H591	H59	0.869100	0.346300	0.905800
C1051	C105	0.979800	0.313800	0.996400
H601	H60	0.981000	0.279600	0.965700
C1061	C106	0.157100	0.706600	0.336600
C1071	C107	0.175600	0.686300	0.422600
H611	H61	0.236000	0.690900	0.463300
C1081	C108	0.103600	0.659000	0.447900
H621	H62	0.116100	0.644800	0.505800
C1091	C109	0.013200	0.652500	0.388300
C1101	C110	0.998100	0.673400	0.303300
H631	H63	0.937900	0.669100	0.262200
C1111	C111	0.068600	0.700500	0.276800
H641	H64	0.056200	0.714500	0.218800
C1121	C112	0.939100	0.621390	0.417300
C1131	C113	0.217300	0.788400	0.269200
C1141	C114	0.147300	0.826700	0.280400
H651	H65	0.109300	0.816600	0.316600
C1151	C115	0.134800	0.879500	0.237900
H661	H66	0.085700	0.903600	0.242500
C1161	C116	0.193500	0.896300	0.189300
C1171	C117	0.261000	0.858900	0.175900
H671	H67	0.299600	0.870500	0.141100
C1181	C118	0.272500	0.805300	0.212700
H681	H68	0.316500	0.779900	0.200600
C1191	C119	0.183200	0.955600	0.148900
C1201	C120	0.323700	0.708500	0.333100
C1211	C121	0.407100	0.740700	0.368200
H691	H69	0.402900	0.779700	0.380100
C1221	C122	0.496900	0.714400	0.385600
H701	H70	0.552500	0.736200	0.406200
C1231	C123	0.502900	0.656900	0.372100
C1241	C124	0.420300	0.624600	0.339300
H711	H71	0.424300	0.585400	0.328900
C1251	C125	0.332000	0.650800	0.322200
H721	H72	0.276800	0.628600	0.302800
C1261	C126	0.598600	0.629400	0.389700
N51	N5	0.846300	0.449880	0.956800
N61	N6	0.233300	0.734730	0.310800
O251	O25	0.889100	0.484570	0.566800
O261	O26	0.776300	0.550400	0.561200
O271	O27	0.687200	0.602200	0.226100
O281	O28	0.762300	0.668800	0.171700
O291	O29	0.149900	0.245750	0.067700
O301	O30	0.163000	0.279850	0.201400
O311	O31	0.959700	0.594640	0.487600
O321	O32	0.853100	0.623880	0.365300
O331	O33	0.108800	0.983040	0.135800
O341	O34	0.259500	0.974680	0.133300
O351	O35	0.672200	0.658880	0.404600
O361	O36	0.603200	0.576440	0.388700
Cd71	Cd7	0.236370	0.062370	0.083750
Cd81	Cd8	0.258060	0.198940	0.196400
C1271	C127	0.156200	0.964000	0.632200
C1281	C128	0.237100	0.991100	0.686900
H731	H73	0.290000	0.998000	0.666500
C1291	C129	0.238000	0.007900	0.772700
H741	H74	0.290200	0.028700	0.807300
C1301	C130	0.166500	0.995200	0.807100
C1311	C131	0.087000	0.966700	0.752100
H751	H75	0.035900	0.957500	0.773800
C1321	C132	0.083400	0.952200	0.666300
H761	H76	0.029200	0.933600	0.630600
C1331	C133	0.168500	0.012100	0.899800
C1341	C134	0.185700	0.992400	0.491200
C1351	C135	0.226800	0.975700	0.425700
H771	H77	0.235900	0.936800	0.416900
C1361	C136	0.253900	0.015300	0.374400
H781	H78	0.281000	0.003100	0.330600
C1371	C137	0.241700	0.073700	0.386000
C1381	C138	0.201800	0.089100	0.449200
H791	H79	0.194500	0.128100	0.458600
C1391	C139	0.170500	0.050000	0.501800
H801	H80	0.140100	0.062400	0.543100
C1401	C140	0.266900	0.117300	0.325000
C1411	C141	0.875100	0.779200	0.380800
C1421	C142	0.953000	0.822600	0.420200
C1431	C143	0.960900	0.872700	0.375800
H811	H81	0.919900	0.878900	0.318700
C1441	C144	0.028300	0.913600	0.414400
H821	H82	0.032400	0.947100	0.383100
C1451	C145	0.089400	0.905600	0.498500
C1461	C146	0.085900	0.853800	0.539500
H831	H83	0.130900	0.846300	0.594200
C1471	C147	0.020200	0.813800	0.503600
H841	H84	0.019000	0.779600	0.534300
C1481	C148	0.842900	0.206600	0.163400
C1491	C149	0.824400	0.186300	0.077400
H851	H85	0.764000	0.190900	0.036700
C1501	C150	0.896400	0.159000	0.052100
H861	H86	0.883900	0.144800	0.994200
C1511	C151	0.986800	0.152500	0.111700
C1521	C152	0.001900	0.173400	0.196700
H871	H87	0.062100	0.169100	0.237800
C1531	C153	0.931400	0.200500	0.223200
H881	H88	0.943800	0.214500	0.281200
C1541	C154	0.060900	0.121390	0.082700
C1551	C155	0.782700	0.288400	0.230800
C1561	C156	0.852700	0.326700	0.219600
H891	H89	0.890700	0.316600	0.183400
C1571	C157	0.865200	0.379500	0.262100
H901	H90	0.914300	0.403600	0.257500
C1581	C158	0.806500	0.396300	0.310700
C1591	C159	0.739000	0.358900	0.324100
H911	H91	0.700400	0.370500	0.358900
C1601	C160	0.727500	0.305300	0.287300
H921	H92	0.683500	0.279900	0.299400
C1611	C161	0.816800	0.455600	0.351100
C1621	C162	0.676300	0.208500	0.166900
C1631	C163	0.592900	0.240700	0.131800
H931	H93	0.597100	0.279700	0.119900
C1641	C164	0.503100	0.214400	0.114400
H941	H94	0.447500	0.236200	0.093800
C1651	C165	0.497100	0.156900	0.127900
C1661	C166	0.579700	0.124600	0.160700
H951	H95	0.575700	0.085400	0.171100
C1671	C167	0.668000	0.150800	0.177800
H961	H96	0.723200	0.128600	0.197200
C1681	C168	0.401400	0.129400	0.110300
N71	N7	0.153700	0.949880	0.543200
N81	N8	0.766700	0.234730	0.189200
O371	O37	0.110900	0.984570	0.933200
O381	O38	0.223700	0.050400	0.938800
O391	O39	0.312800	0.102200	0.273900
O401	O40	0.237700	0.168800	0.328300
O411	O41	0.850100	0.745750	0.432300
O421	O42	0.837000	0.779850	0.298600
O431	O43	0.040300	0.094640	0.012400
O441	O44	0.146900	0.123880	0.134700
O451	O45	0.891200	0.483040	0.364200
O461	O46	0.740500	0.474680	0.366700
O471	O47	0.327800	0.158880	0.095400
O481	O48	0.396800	0.076440	0.111300
Cd91	Cd9	0.000000	0.500000	0.500000
Cd101	Cd10	0.000000	0.000000	0.000000
