data_YUZCED_clean_PM
_symmetry_space_group_name_H-M	'P1'
_cell_length_a	9.768200
_cell_length_b	9.768200
_cell_length_c	20.100000
_cell_angle_alpha	90.000000
_cell_angle_beta	90.000000
_cell_angle_gamma	120.000000
_symmetry_Int_Tables_number 1

loop_
_symmetry_equiv_pos_as_xyz
'x,y,z'

loop_
_atom_site_label
_atom_site_type_symbol
_atom_site_fract_x
_atom_site_fract_y
_atom_site_fract_z
Zn11	Zn1	0.958770	0.510320	0.415650
N11	N1	0.361300	0.849200	0.511700
N21	N2	0.426400	0.825800	0.453700
N31	N3	0.161500	0.689300	0.447600
N41	N4	0.098900	0.761700	0.551200
H11	H1	0.000900	0.667200	0.557400
H21	H2	0.131400	0.806200	0.592100
N51	N5	0.240200	0.417700	0.292900
N61	N6	0.057900	0.427300	0.354800
N71	N7	0.986000	0.275700	0.326900
N81	N8	0.082400	0.151100	0.253400
H31	H3	0.995500	0.104500	0.223600
H41	H4	0.165400	0.164500	0.228400
C11	C1	0.204400	0.765700	0.506000
C21	C2	0.303500	0.729600	0.417800
C31	C3	0.320300	0.675100	0.350100
H51	H5	0.309200	0.742900	0.316500
H61	H6	0.428600	0.691800	0.346000
C41	C4	0.205800	0.506800	0.333800
C51	C5	0.099900	0.278800	0.290000
Zn21	Zn2	0.489680	0.448450	0.748980
N91	N9	0.150800	0.512100	0.845030
N101	N10	0.174200	0.600600	0.787030
N111	N11	0.310700	0.472200	0.780930
N121	N12	0.238300	0.337200	0.884530
H71	H7	0.332800	0.333700	0.890730
H81	H8	0.193800	0.325200	0.925430
N131	N13	0.582300	0.822500	0.626230
N141	N14	0.572700	0.630600	0.688130
N151	N15	0.724300	0.710300	0.660230
N161	N16	0.848900	0.931300	0.586730
H91	H9	0.895500	0.891000	0.556930
H101	H10	0.835500	0.000900	0.561730
C61	C6	0.234300	0.438700	0.839330
C71	C7	0.270400	0.573900	0.751130
C81	C8	0.324900	0.645200	0.683430
H111	H11	0.257100	0.566300	0.649830
H121	H12	0.308200	0.736800	0.679330
C91	C9	0.493200	0.699000	0.667130
C101	C10	0.721200	0.821100	0.623330
Zn31	Zn3	0.551550	0.041230	0.082320
N171	N17	0.487900	0.638700	0.178370
N181	N18	0.399400	0.573600	0.120370
N191	N19	0.527800	0.838500	0.114270
N201	N20	0.662800	0.901100	0.217870
H131	H13	0.666300	0.999100	0.224070
H141	H14	0.674800	0.868600	0.258770
N211	N21	0.177500	0.759800	0.959570
N221	N22	0.369400	0.942100	0.021470
N231	N23	0.289700	0.014000	0.993570
N241	N24	0.068700	0.917600	0.920070
H151	H15	0.109000	0.004500	0.890270
H161	H16	0.999100	0.834600	0.895070
C111	C11	0.561300	0.795600	0.172670
C121	C12	0.426100	0.696500	0.084470
C131	C13	0.354800	0.679700	0.016770
H171	H17	0.433700	0.690800	0.983170
H181	H18	0.263200	0.571400	0.012670
C141	C14	0.301000	0.794200	0.000470
C151	C15	0.178900	0.900100	0.956670
Zn41	Zn4	0.510320	0.958770	0.584350
N251	N25	0.849200	0.361300	0.488300
N261	N26	0.825800	0.426400	0.546300
N271	N27	0.689300	0.161500	0.552400
N281	N28	0.761700	0.098900	0.448800
H191	H19	0.667200	0.000900	0.442600
H201	H20	0.806200	0.131400	0.407900
N291	N29	0.417700	0.240200	0.707100
N301	N30	0.427300	0.057900	0.645200
N311	N31	0.275700	0.986000	0.673100
N321	N32	0.151100	0.082400	0.746600
H211	H21	0.104500	0.995500	0.776400
H221	H22	0.164500	0.165400	0.771600
C161	C16	0.765700	0.204400	0.494000
C171	C17	0.729600	0.303500	0.582200
C181	C18	0.675100	0.320300	0.649900
H231	H23	0.742900	0.309200	0.683500
H241	H24	0.691800	0.428600	0.654000
C191	C19	0.506800	0.205800	0.666200
C201	C20	0.278800	0.099900	0.710000
Zn51	Zn5	0.448450	0.489680	0.251020
N331	N33	0.512100	0.150800	0.154970
N341	N34	0.600600	0.174200	0.212970
N351	N35	0.472200	0.310700	0.219070
N361	N36	0.337200	0.238300	0.115470
H251	H25	0.333700	0.332800	0.109270
H261	H26	0.325200	0.193800	0.074570
N371	N37	0.822500	0.582300	0.373770
N381	N38	0.630600	0.572700	0.311870
N391	N39	0.710300	0.724300	0.339770
N401	N40	0.931300	0.848900	0.413270
H271	H27	0.891000	0.895500	0.443070
H281	H28	0.000900	0.835500	0.438270
C211	C21	0.438700	0.234300	0.160670
C221	C22	0.573900	0.270400	0.248870
C231	C23	0.645200	0.324900	0.316570
H291	H29	0.566300	0.257100	0.350170
H301	H30	0.736800	0.308200	0.320670
C241	C24	0.699000	0.493200	0.332870
C251	C25	0.821100	0.721200	0.376670
Zn61	Zn6	0.041230	0.551550	0.917680
N411	N41	0.638700	0.487900	0.821630
N421	N42	0.573600	0.399400	0.879630
N431	N43	0.838500	0.527800	0.885730
N441	N44	0.901100	0.662800	0.782130
H311	H31	0.999100	0.666300	0.775930
H321	H32	0.868600	0.674800	0.741230
N451	N45	0.759800	0.177500	0.040430
N461	N46	0.942100	0.369400	0.978530
N471	N47	0.014000	0.289700	0.006430
N481	N48	0.917600	0.068700	0.079930
H331	H33	0.004500	0.109000	0.109730
H341	H34	0.834600	0.999100	0.104930
C261	C26	0.795600	0.561300	0.827330
C271	C27	0.696500	0.426100	0.915530
C281	C28	0.679700	0.354800	0.983230
H351	H35	0.690800	0.433700	0.016830
H361	H36	0.571400	0.263200	0.987330
C291	C29	0.794200	0.301000	0.999530
C301	C30	0.900100	0.178900	0.043330
