data_YUZCON_clean_PM
_symmetry_space_group_name_H-M	'P1'
_cell_length_a	39.737900
_cell_length_b	39.737900
_cell_length_c	39.737900
_cell_angle_alpha	90.000000
_cell_angle_beta	90.000000
_cell_angle_gamma	90.000000
_symmetry_Int_Tables_number 1

loop_
_symmetry_equiv_pos_as_xyz
'x,y,z'

loop_
_atom_site_label
_atom_site_type_symbol
_atom_site_fract_x
_atom_site_fract_y
_atom_site_fract_z
Mo11	Mo1	0.182960	0.347130	0.088300
Mo21	Mo2	0.105890	0.301510	0.008390
Mo31	Mo3	0.100090	0.382480	0.985860
P11	P1	0.176790	0.349310	0.006470
O11	O1	0.212560	0.344130	0.993580
O21	O2	0.178240	0.366030	0.041960
O31	O3	0.166840	0.397770	0.096400
O41	O4	0.168710	0.458590	0.109910
O51	O5	0.159050	0.315360	0.008080
O61	O6	0.102280	0.348930	0.020110
O71	O7	0.157510	0.375000	0.984520
O81	O8	0.193710	0.349510	0.135080
Mo41	Mo4	0.682960	0.847130	0.588300
Mo51	Mo5	0.605890	0.801510	0.508390
Mo61	Mo6	0.600090	0.882480	0.485860
P21	P2	0.676790	0.849310	0.506470
O91	O9	0.712560	0.844130	0.493580
O101	O10	0.678240	0.866030	0.541960
O111	O11	0.666840	0.897770	0.596400
O121	O12	0.668710	0.958590	0.609910
O131	O13	0.659050	0.815360	0.508080
O141	O14	0.602280	0.848930	0.520110
O151	O15	0.657510	0.875000	0.484520
O161	O16	0.693710	0.849510	0.635080
Mo71	Mo7	0.317040	0.652870	0.588300
Mo81	Mo8	0.394110	0.698490	0.508390
Mo91	Mo9	0.399910	0.617520	0.485860
P31	P3	0.323210	0.650690	0.506470
O171	O17	0.287440	0.655870	0.493580
O181	O18	0.321760	0.633970	0.541960
O191	O19	0.333160	0.602230	0.596400
O201	O20	0.331290	0.541410	0.609910
O211	O21	0.340950	0.684640	0.508080
O221	O22	0.397720	0.651070	0.520110
O231	O23	0.342490	0.625000	0.484520
O241	O24	0.306290	0.650490	0.635080
Mo101	Mo10	0.817040	0.152870	0.088300
Mo111	Mo11	0.894110	0.198490	0.008390
Mo121	Mo12	0.899910	0.117520	0.985860
P41	P4	0.823210	0.150690	0.006470
O251	O25	0.787440	0.155870	0.993580
O261	O26	0.821760	0.133970	0.041960
O271	O27	0.833160	0.102230	0.096400
O281	O28	0.831290	0.041410	0.109910
O291	O29	0.840950	0.184640	0.008080
O301	O30	0.897720	0.151070	0.020110
O311	O31	0.842490	0.125000	0.984520
O321	O32	0.806290	0.150490	0.135080
Mo131	Mo13	0.817040	0.847130	0.411700
Mo141	Mo14	0.894110	0.801510	0.491610
Mo151	Mo15	0.899910	0.882480	0.514140
P51	P5	0.823210	0.849310	0.493530
O331	O33	0.787440	0.844130	0.506420
O341	O34	0.821760	0.866030	0.458040
O351	O35	0.833160	0.897770	0.403600
O361	O36	0.831290	0.958590	0.390090
O371	O37	0.840950	0.815360	0.491920
O381	O38	0.897720	0.848930	0.479890
O391	O39	0.842490	0.875000	0.515480
O401	O40	0.806290	0.849510	0.364920
Mo161	Mo16	0.317040	0.347130	0.911700
Mo171	Mo17	0.394110	0.301510	0.991610
Mo181	Mo18	0.399910	0.382480	0.014140
P61	P6	0.323210	0.349310	0.993530
O411	O41	0.287440	0.344130	0.006420
O421	O42	0.321760	0.366030	0.958040
O431	O43	0.333160	0.397770	0.903600
O441	O44	0.331290	0.458590	0.890090
O451	O45	0.340950	0.315360	0.991920
O461	O46	0.397720	0.348930	0.979890
O471	O47	0.342490	0.375000	0.015480
O481	O48	0.306290	0.349510	0.864920
Mo191	Mo19	0.682960	0.152870	0.911700
Mo201	Mo20	0.605890	0.198490	0.991610
Mo211	Mo21	0.600090	0.117520	0.014140
P71	P7	0.676790	0.150690	0.993530
O491	O49	0.712560	0.155870	0.006420
O501	O50	0.678240	0.133970	0.958040
O511	O51	0.666840	0.102230	0.903600
O521	O52	0.668710	0.041410	0.890090
O531	O53	0.659050	0.184640	0.991920
O541	O54	0.602280	0.151070	0.979890
O551	O55	0.657510	0.125000	0.015480
O561	O56	0.693710	0.150490	0.864920
Mo221	Mo22	0.182960	0.652870	0.411700
Mo231	Mo23	0.105890	0.698490	0.491610
Mo241	Mo24	0.100090	0.617520	0.514140
P81	P8	0.176790	0.650690	0.493530
O571	O57	0.212560	0.655870	0.506420
O581	O58	0.178240	0.633970	0.458040
O591	O59	0.166840	0.602230	0.403600
O601	O60	0.168710	0.541410	0.390090
O611	O61	0.159050	0.684640	0.491920
O621	O62	0.102280	0.651070	0.479890
O631	O63	0.157510	0.625000	0.515480
O641	O64	0.193710	0.650490	0.364920
Mo251	Mo25	0.088300	0.182960	0.347130
Mo261	Mo26	0.008390	0.105890	0.301510
Mo271	Mo27	0.985860	0.100090	0.382480
P91	P9	0.006470	0.176790	0.349310
O651	O65	0.993580	0.212560	0.344130
O661	O66	0.041960	0.178240	0.366030
O671	O67	0.096400	0.166840	0.397770
O681	O68	0.109910	0.168710	0.458590
O691	O69	0.008080	0.159050	0.315360
O701	O70	0.020110	0.102280	0.348930
O711	O71	0.984520	0.157510	0.375000
O721	O72	0.135080	0.193710	0.349510
Mo281	Mo28	0.588300	0.682960	0.847130
Mo291	Mo29	0.508390	0.605890	0.801510
Mo301	Mo30	0.485860	0.600090	0.882480
P101	P10	0.506470	0.676790	0.849310
O731	O73	0.493580	0.712560	0.844130
O741	O74	0.541960	0.678240	0.866030
O751	O75	0.596400	0.666840	0.897770
O761	O76	0.609910	0.668710	0.958590
O771	O77	0.508080	0.659050	0.815360
O781	O78	0.520110	0.602280	0.848930
O791	O79	0.484520	0.657510	0.875000
O801	O80	0.635080	0.693710	0.849510
Mo311	Mo31	0.588300	0.317040	0.652870
Mo321	Mo32	0.508390	0.394110	0.698490
Mo331	Mo33	0.485860	0.399910	0.617520
P111	P11	0.506470	0.323210	0.650690
O811	O81	0.493580	0.287440	0.655870
O821	O82	0.541960	0.321760	0.633970
O831	O83	0.596400	0.333160	0.602230
O841	O84	0.609910	0.331290	0.541410
O851	O85	0.508080	0.340950	0.684640
O861	O86	0.520110	0.397720	0.651070
O871	O87	0.484520	0.342490	0.625000
O881	O88	0.635080	0.306290	0.650490
Mo341	Mo34	0.088300	0.817040	0.152870
Mo351	Mo35	0.008390	0.894110	0.198490
Mo361	Mo36	0.985860	0.899910	0.117520
P121	P12	0.006470	0.823210	0.150690
O891	O89	0.993580	0.787440	0.155870
O901	O90	0.041960	0.821760	0.133970
O911	O91	0.096400	0.833160	0.102230
O921	O92	0.109910	0.831290	0.041410
O931	O93	0.008080	0.840950	0.184640
O941	O94	0.020110	0.897720	0.151070
O951	O95	0.984520	0.842490	0.125000
O961	O96	0.135080	0.806290	0.150490
Mo371	Mo37	0.411700	0.817040	0.847130
Mo381	Mo38	0.491610	0.894110	0.801510
Mo391	Mo39	0.514140	0.899910	0.882480
P131	P13	0.493530	0.823210	0.849310
O971	O97	0.506420	0.787440	0.844130
O981	O98	0.458040	0.821760	0.866030
O991	O99	0.403600	0.833160	0.897770
O1001	O100	0.390090	0.831290	0.958590
O1011	O101	0.491920	0.840950	0.815360
O1021	O102	0.479890	0.897720	0.848930
O1031	O103	0.515480	0.842490	0.875000
O1041	O104	0.364920	0.806290	0.849510
Mo401	Mo40	0.911700	0.317040	0.347130
Mo411	Mo41	0.991610	0.394110	0.301510
Mo421	Mo42	0.014140	0.399910	0.382480
P141	P14	0.993530	0.323210	0.349310
O1051	O105	0.006420	0.287440	0.344130
O1061	O106	0.958040	0.321760	0.366030
O1071	O107	0.903600	0.333160	0.397770
O1081	O108	0.890090	0.331290	0.458590
O1091	O109	0.991920	0.340950	0.315360
O1101	O110	0.979890	0.397720	0.348930
O1111	O111	0.015480	0.342490	0.375000
O1121	O112	0.864920	0.306290	0.349510
Mo431	Mo43	0.911700	0.682960	0.152870
Mo441	Mo44	0.991610	0.605890	0.198490
Mo451	Mo45	0.014140	0.600090	0.117520
P151	P15	0.993530	0.676790	0.150690
O1131	O113	0.006420	0.712560	0.155870
O1141	O114	0.958040	0.678240	0.133970
O1151	O115	0.903600	0.666840	0.102230
O1161	O116	0.890090	0.668710	0.041410
O1171	O117	0.991920	0.659050	0.184640
O1181	O118	0.979890	0.602280	0.151070
O1191	O119	0.015480	0.657510	0.125000
O1201	O120	0.864920	0.693710	0.150490
Mo461	Mo46	0.411700	0.182960	0.652870
Mo471	Mo47	0.491610	0.105890	0.698490
Mo481	Mo48	0.514140	0.100090	0.617520
P161	P16	0.493530	0.176790	0.650690
O1211	O121	0.506420	0.212560	0.655870
O1221	O122	0.458040	0.178240	0.633970
O1231	O123	0.403600	0.166840	0.602230
O1241	O124	0.390090	0.168710	0.541410
O1251	O125	0.491920	0.159050	0.684640
O1261	O126	0.479890	0.102280	0.651070
O1271	O127	0.515480	0.157510	0.625000
O1281	O128	0.364920	0.193710	0.650490
Mo491	Mo49	0.347130	0.088300	0.182960
Mo501	Mo50	0.301510	0.008390	0.105890
Mo511	Mo51	0.382480	0.985860	0.100090
P171	P17	0.349310	0.006470	0.176790
O1291	O129	0.344130	0.993580	0.212560
O1301	O130	0.366030	0.041960	0.178240
O1311	O131	0.397770	0.096400	0.166840
O1321	O132	0.458590	0.109910	0.168710
O1331	O133	0.315360	0.008080	0.159050
O1341	O134	0.348930	0.020110	0.102280
O1351	O135	0.375000	0.984520	0.157510
O1361	O136	0.349510	0.135080	0.193710
Mo521	Mo52	0.847130	0.588300	0.682960
Mo531	Mo53	0.801510	0.508390	0.605890
Mo541	Mo54	0.882480	0.485860	0.600090
P181	P18	0.849310	0.506470	0.676790
O1371	O137	0.844130	0.493580	0.712560
O1381	O138	0.866030	0.541960	0.678240
O1391	O139	0.897770	0.596400	0.666840
O1401	O140	0.958590	0.609910	0.668710
O1411	O141	0.815360	0.508080	0.659050
O1421	O142	0.848930	0.520110	0.602280
O1431	O143	0.875000	0.484520	0.657510
O1441	O144	0.849510	0.635080	0.693710
Mo551	Mo55	0.652870	0.588300	0.317040
Mo561	Mo56	0.698490	0.508390	0.394110
Mo571	Mo57	0.617520	0.485860	0.399910
P191	P19	0.650690	0.506470	0.323210
O1451	O145	0.655870	0.493580	0.287440
O1461	O146	0.633970	0.541960	0.321760
O1471	O147	0.602230	0.596400	0.333160
O1481	O148	0.541410	0.609910	0.331290
O1491	O149	0.684640	0.508080	0.340950
O1501	O150	0.651070	0.520110	0.397720
O1511	O151	0.625000	0.484520	0.342490
O1521	O152	0.650490	0.635080	0.306290
Mo581	Mo58	0.152870	0.088300	0.817040
Mo591	Mo59	0.198490	0.008390	0.894110
Mo601	Mo60	0.117520	0.985860	0.899910
P201	P20	0.150690	0.006470	0.823210
O1531	O153	0.155870	0.993580	0.787440
O1541	O154	0.133970	0.041960	0.821760
O1551	O155	0.102230	0.096400	0.833160
O1561	O156	0.041410	0.109910	0.831290
O1571	O157	0.184640	0.008080	0.840950
O1581	O158	0.151070	0.020110	0.897720
O1591	O159	0.125000	0.984520	0.842490
O1601	O160	0.150490	0.135080	0.806290
Mo611	Mo61	0.847130	0.411700	0.817040
Mo621	Mo62	0.801510	0.491610	0.894110
Mo631	Mo63	0.882480	0.514140	0.899910
P211	P21	0.849310	0.493530	0.823210
O1611	O161	0.844130	0.506420	0.787440
O1621	O162	0.866030	0.458040	0.821760
O1631	O163	0.897770	0.403600	0.833160
O1641	O164	0.958590	0.390090	0.831290
O1651	O165	0.815360	0.491920	0.840950
O1661	O166	0.848930	0.479890	0.897720
O1671	O167	0.875000	0.515480	0.842490
O1681	O168	0.849510	0.364920	0.806290
Mo641	Mo64	0.347130	0.911700	0.317040
Mo651	Mo65	0.301510	0.991610	0.394110
Mo661	Mo66	0.382480	0.014140	0.399910
P221	P22	0.349310	0.993530	0.323210
O1691	O169	0.344130	0.006420	0.287440
O1701	O170	0.366030	0.958040	0.321760
O1711	O171	0.397770	0.903600	0.333160
O1721	O172	0.458590	0.890090	0.331290
O1731	O173	0.315360	0.991920	0.340950
O1741	O174	0.348930	0.979890	0.397720
O1751	O175	0.375000	0.015480	0.342490
O1761	O176	0.349510	0.864920	0.306290
Mo671	Mo67	0.152870	0.911700	0.682960
Mo681	Mo68	0.198490	0.991610	0.605890
Mo691	Mo69	0.117520	0.014140	0.600090
P231	P23	0.150690	0.993530	0.676790
O1771	O177	0.155870	0.006420	0.712560
O1781	O178	0.133970	0.958040	0.678240
O1791	O179	0.102230	0.903600	0.666840
O1801	O180	0.041410	0.890090	0.668710
O1811	O181	0.184640	0.991920	0.659050
O1821	O182	0.151070	0.979890	0.602280
O1831	O183	0.125000	0.015480	0.657510
O1841	O184	0.150490	0.864920	0.693710
Mo701	Mo70	0.652870	0.411700	0.182960
Mo711	Mo71	0.698490	0.491610	0.105890
Mo721	Mo72	0.617520	0.514140	0.100090
P241	P24	0.650690	0.493530	0.176790
O1851	O185	0.655870	0.506420	0.212560
O1861	O186	0.633970	0.458040	0.178240
O1871	O187	0.602230	0.403600	0.166840
O1881	O188	0.541410	0.390090	0.168710
O1891	O189	0.684640	0.491920	0.159050
O1901	O190	0.651070	0.479890	0.102280
O1911	O191	0.625000	0.515480	0.157510
O1921	O192	0.650490	0.364920	0.193710
Mo731	Mo73	0.097130	0.432960	0.161700
Mo741	Mo74	0.051510	0.355890	0.241610
Mo751	Mo75	0.132480	0.350090	0.264140
P251	P25	0.099310	0.426790	0.243530
O1931	O193	0.094130	0.462560	0.256420
O1941	O194	0.116030	0.428240	0.208040
O1951	O195	0.147770	0.416840	0.153600
O1961	O196	0.208590	0.418710	0.140090
O1971	O197	0.065360	0.409050	0.241920
O1981	O198	0.098930	0.352280	0.229890
O1991	O199	0.125000	0.407510	0.265480
O2001	O200	0.099510	0.443710	0.114920
Mo761	Mo76	0.597130	0.932960	0.661700
Mo771	Mo77	0.551510	0.855890	0.741610
Mo781	Mo78	0.632480	0.850090	0.764140
P261	P26	0.599310	0.926790	0.743530
O2011	O201	0.594130	0.962560	0.756420
O2021	O202	0.616030	0.928240	0.708040
O2031	O203	0.647770	0.916840	0.653600
O2041	O204	0.708590	0.918710	0.640090
O2051	O205	0.565360	0.909050	0.741920
O2061	O206	0.598930	0.852280	0.729890
O2071	O207	0.625000	0.907510	0.765480
O2081	O208	0.599510	0.943710	0.614920
Mo791	Mo79	0.402870	0.567040	0.661700
Mo801	Mo80	0.448490	0.644110	0.741610
Mo811	Mo81	0.367520	0.649910	0.764140
P271	P27	0.400690	0.573210	0.743530
O2091	O209	0.405870	0.537440	0.756420
O2101	O210	0.383970	0.571760	0.708040
O2111	O211	0.352230	0.583160	0.653600
O2121	O212	0.291410	0.581290	0.640090
O2131	O213	0.434640	0.590950	0.741920
O2141	O214	0.401070	0.647720	0.729890
O2151	O215	0.375000	0.592490	0.765480
O2161	O216	0.400490	0.556290	0.614920
Mo821	Mo82	0.902870	0.067040	0.161700
Mo831	Mo83	0.948490	0.144110	0.241610
Mo841	Mo84	0.867520	0.149910	0.264140
P281	P28	0.900690	0.073210	0.243530
O2171	O217	0.905870	0.037440	0.256420
O2181	O218	0.883970	0.071760	0.208040
O2191	O219	0.852230	0.083160	0.153600
O2201	O220	0.791410	0.081290	0.140090
O2211	O221	0.934640	0.090950	0.241920
O2221	O222	0.901070	0.147720	0.229890
O2231	O223	0.875000	0.092490	0.265480
O2241	O224	0.900490	0.056290	0.114920
Mo851	Mo85	0.597130	0.067040	0.838300
Mo861	Mo86	0.551510	0.144110	0.758390
Mo871	Mo87	0.632480	0.149910	0.735860
P291	P29	0.599310	0.073210	0.756470
O2251	O225	0.594130	0.037440	0.743580
O2261	O226	0.616030	0.071760	0.791960
O2271	O227	0.647770	0.083160	0.846400
O2281	O228	0.708590	0.081290	0.859910
O2291	O229	0.565360	0.090950	0.758080
O2301	O230	0.598930	0.147720	0.770110
O2311	O231	0.625000	0.092490	0.734520
O2321	O232	0.599510	0.056290	0.885080
Mo881	Mo88	0.097130	0.567040	0.338300
Mo891	Mo89	0.051510	0.644110	0.258390
Mo901	Mo90	0.132480	0.649910	0.235860
P301	P30	0.099310	0.573210	0.256470
O2331	O233	0.094130	0.537440	0.243580
O2341	O234	0.116030	0.571760	0.291960
O2351	O235	0.147770	0.583160	0.346400
O2361	O236	0.208590	0.581290	0.359910
O2371	O237	0.065360	0.590950	0.258080
O2381	O238	0.098930	0.647720	0.270110
O2391	O239	0.125000	0.592490	0.234520
O2401	O240	0.099510	0.556290	0.385080
Mo911	Mo91	0.902870	0.932960	0.338300
Mo921	Mo92	0.948490	0.855890	0.258390
Mo931	Mo93	0.867520	0.850090	0.235860
P311	P31	0.900690	0.926790	0.256470
O2411	O241	0.905870	0.962560	0.243580
O2421	O242	0.883970	0.928240	0.291960
O2431	O243	0.852230	0.916840	0.346400
O2441	O244	0.791410	0.918710	0.359910
O2451	O245	0.934640	0.909050	0.258080
O2461	O246	0.901070	0.852280	0.270110
O2471	O247	0.875000	0.907510	0.234520
O2481	O248	0.900490	0.943710	0.385080
Mo941	Mo94	0.402870	0.432960	0.838300
Mo951	Mo95	0.448490	0.355890	0.758390
Mo961	Mo96	0.367520	0.350090	0.735860
P321	P32	0.400690	0.426790	0.756470
O2491	O249	0.405870	0.462560	0.743580
O2501	O250	0.383970	0.428240	0.791960
O2511	O251	0.352230	0.416840	0.846400
O2521	O252	0.291410	0.418710	0.859910
O2531	O253	0.434640	0.409050	0.758080
O2541	O254	0.401070	0.352280	0.770110
O2551	O255	0.375000	0.407510	0.734520
O2561	O256	0.400490	0.443710	0.885080
Mo971	Mo97	0.932960	0.338300	0.902870
Mo981	Mo98	0.855890	0.258390	0.948490
Mo991	Mo99	0.850090	0.235860	0.867520
P331	P33	0.926790	0.256470	0.900690
O2571	O257	0.962560	0.243580	0.905870
O2581	O258	0.928240	0.291960	0.883970
O2591	O259	0.916840	0.346400	0.852230
O2601	O260	0.918710	0.359910	0.791410
O2611	O261	0.909050	0.258080	0.934640
O2621	O262	0.852280	0.270110	0.901070
O2631	O263	0.907510	0.234520	0.875000
O2641	O264	0.943710	0.385080	0.900490
Mo1001	Mo100	0.432960	0.838300	0.402870
Mo1011	Mo101	0.355890	0.758390	0.448490
Mo1021	Mo102	0.350090	0.735860	0.367520
P341	P34	0.426790	0.756470	0.400690
O2651	O265	0.462560	0.743580	0.405870
O2661	O266	0.428240	0.791960	0.383970
O2671	O267	0.416840	0.846400	0.352230
O2681	O268	0.418710	0.859910	0.291410
O2691	O269	0.409050	0.758080	0.434640
O2701	O270	0.352280	0.770110	0.401070
O2711	O271	0.407510	0.734520	0.375000
O2721	O272	0.443710	0.885080	0.400490
Mo1031	Mo103	0.067040	0.838300	0.597130
Mo1041	Mo104	0.144110	0.758390	0.551510
Mo1051	Mo105	0.149910	0.735860	0.632480
P351	P35	0.073210	0.756470	0.599310
O2731	O273	0.037440	0.743580	0.594130
O2741	O274	0.071760	0.791960	0.616030
O2751	O275	0.083160	0.846400	0.647770
O2761	O276	0.081290	0.859910	0.708590
O2771	O277	0.090950	0.758080	0.565360
O2781	O278	0.147720	0.770110	0.598930
O2791	O279	0.092490	0.734520	0.625000
O2801	O280	0.056290	0.885080	0.599510
Mo1061	Mo106	0.567040	0.338300	0.097130
Mo1071	Mo107	0.644110	0.258390	0.051510
Mo1081	Mo108	0.649910	0.235860	0.132480
P361	P36	0.573210	0.256470	0.099310
O2811	O281	0.537440	0.243580	0.094130
O2821	O282	0.571760	0.291960	0.116030
O2831	O283	0.583160	0.346400	0.147770
O2841	O284	0.581290	0.359910	0.208590
O2851	O285	0.590950	0.258080	0.065360
O2861	O286	0.647720	0.270110	0.098930
O2871	O287	0.592490	0.234520	0.125000
O2881	O288	0.556290	0.385080	0.099510
Mo1091	Mo109	0.567040	0.661700	0.402870
Mo1101	Mo110	0.644110	0.741610	0.448490
Mo1111	Mo111	0.649910	0.764140	0.367520
P371	P37	0.573210	0.743530	0.400690
O2891	O289	0.537440	0.756420	0.405870
O2901	O290	0.571760	0.708040	0.383970
O2911	O291	0.583160	0.653600	0.352230
O2921	O292	0.581290	0.640090	0.291410
O2931	O293	0.590950	0.741920	0.434640
O2941	O294	0.647720	0.729890	0.401070
O2951	O295	0.592490	0.765480	0.375000
O2961	O296	0.556290	0.614920	0.400490
Mo1121	Mo112	0.067040	0.161700	0.902870
Mo1131	Mo113	0.144110	0.241610	0.948490
Mo1141	Mo114	0.149910	0.264140	0.867520
P381	P38	0.073210	0.243530	0.900690
O2971	O297	0.037440	0.256420	0.905870
O2981	O298	0.071760	0.208040	0.883970
O2991	O299	0.083160	0.153600	0.852230
O3001	O300	0.081290	0.140090	0.791410
O3011	O301	0.090950	0.241920	0.934640
O3021	O302	0.147720	0.229890	0.901070
O3031	O303	0.092490	0.265480	0.875000
O3041	O304	0.056290	0.114920	0.900490
Mo1151	Mo115	0.432960	0.161700	0.097130
Mo1161	Mo116	0.355890	0.241610	0.051510
Mo1171	Mo117	0.350090	0.264140	0.132480
P391	P39	0.426790	0.243530	0.099310
O3051	O305	0.462560	0.256420	0.094130
O3061	O306	0.428240	0.208040	0.116030
O3071	O307	0.416840	0.153600	0.147770
O3081	O308	0.418710	0.140090	0.208590
O3091	O309	0.409050	0.241920	0.065360
O3101	O310	0.352280	0.229890	0.098930
O3111	O311	0.407510	0.265480	0.125000
O3121	O312	0.443710	0.114920	0.099510
Mo1181	Mo118	0.932960	0.661700	0.597130
Mo1191	Mo119	0.855890	0.741610	0.551510
Mo1201	Mo120	0.850090	0.764140	0.632480
P401	P40	0.926790	0.743530	0.599310
O3131	O313	0.962560	0.756420	0.594130
O3141	O314	0.928240	0.708040	0.616030
O3151	O315	0.916840	0.653600	0.647770
O3161	O316	0.918710	0.640090	0.708590
O3171	O317	0.909050	0.741920	0.565360
O3181	O318	0.852280	0.729890	0.598930
O3191	O319	0.907510	0.765480	0.625000
O3201	O320	0.943710	0.614920	0.599510
Mo1211	Mo121	0.838300	0.597130	0.067040
Mo1221	Mo122	0.758390	0.551510	0.144110
Mo1231	Mo123	0.735860	0.632480	0.149910
P411	P41	0.756470	0.599310	0.073210
O3211	O321	0.743580	0.594130	0.037440
O3221	O322	0.791960	0.616030	0.071760
O3231	O323	0.846400	0.647770	0.083160
O3241	O324	0.859910	0.708590	0.081290
O3251	O325	0.758080	0.565360	0.090950
O3261	O326	0.770110	0.598930	0.147720
O3271	O327	0.734520	0.625000	0.092490
O3281	O328	0.885080	0.599510	0.056290
Mo1241	Mo124	0.338300	0.097130	0.567040
Mo1251	Mo125	0.258390	0.051510	0.644110
Mo1261	Mo126	0.235860	0.132480	0.649910
P421	P42	0.256470	0.099310	0.573210
O3291	O329	0.243580	0.094130	0.537440
O3301	O330	0.291960	0.116030	0.571760
O3311	O331	0.346400	0.147770	0.583160
O3321	O332	0.359910	0.208590	0.581290
O3331	O333	0.258080	0.065360	0.590950
O3341	O334	0.270110	0.098930	0.647720
O3351	O335	0.234520	0.125000	0.592490
O3361	O336	0.385080	0.099510	0.556290
Mo1271	Mo127	0.338300	0.902870	0.932960
Mo1281	Mo128	0.258390	0.948490	0.855890
Mo1291	Mo129	0.235860	0.867520	0.850090
P431	P43	0.256470	0.900690	0.926790
O3371	O337	0.243580	0.905870	0.962560
O3381	O338	0.291960	0.883970	0.928240
O3391	O339	0.346400	0.852230	0.916840
O3401	O340	0.359910	0.791410	0.918710
O3411	O341	0.258080	0.934640	0.909050
O3421	O342	0.270110	0.901070	0.852280
O3431	O343	0.234520	0.875000	0.907510
O3441	O344	0.385080	0.900490	0.943710
Mo1301	Mo130	0.838300	0.402870	0.432960
Mo1311	Mo131	0.758390	0.448490	0.355890
Mo1321	Mo132	0.735860	0.367520	0.350090
P441	P44	0.756470	0.400690	0.426790
O3451	O345	0.743580	0.405870	0.462560
O3461	O346	0.791960	0.383970	0.428240
O3471	O347	0.846400	0.352230	0.416840
O3481	O348	0.859910	0.291410	0.418710
O3491	O349	0.758080	0.434640	0.409050
O3501	O350	0.770110	0.401070	0.352280
O3511	O351	0.734520	0.375000	0.407510
O3521	O352	0.885080	0.400490	0.443710
Mo1331	Mo133	0.161700	0.097130	0.432960
Mo1341	Mo134	0.241610	0.051510	0.355890
Mo1351	Mo135	0.264140	0.132480	0.350090
P451	P45	0.243530	0.099310	0.426790
O3531	O353	0.256420	0.094130	0.462560
O3541	O354	0.208040	0.116030	0.428240
O3551	O355	0.153600	0.147770	0.416840
O3561	O356	0.140090	0.208590	0.418710
O3571	O357	0.241920	0.065360	0.409050
O3581	O358	0.229890	0.098930	0.352280
O3591	O359	0.265480	0.125000	0.407510
O3601	O360	0.114920	0.099510	0.443710
Mo1361	Mo136	0.661700	0.597130	0.932960
Mo1371	Mo137	0.741610	0.551510	0.855890
Mo1381	Mo138	0.764140	0.632480	0.850090
P461	P46	0.743530	0.599310	0.926790
O3611	O361	0.756420	0.594130	0.962560
O3621	O362	0.708040	0.616030	0.928240
O3631	O363	0.653600	0.647770	0.916840
O3641	O364	0.640090	0.708590	0.918710
O3651	O365	0.741920	0.565360	0.909050
O3661	O366	0.729890	0.598930	0.852280
O3671	O367	0.765480	0.625000	0.907510
O3681	O368	0.614920	0.599510	0.943710
Mo1391	Mo139	0.661700	0.402870	0.567040
Mo1401	Mo140	0.741610	0.448490	0.644110
Mo1411	Mo141	0.764140	0.367520	0.649910
P471	P47	0.743530	0.400690	0.573210
O3691	O369	0.756420	0.405870	0.537440
O3701	O370	0.708040	0.383970	0.571760
O3711	O371	0.653600	0.352230	0.583160
O3721	O372	0.640090	0.291410	0.581290
O3731	O373	0.741920	0.434640	0.590950
O3741	O374	0.729890	0.401070	0.647720
O3751	O375	0.765480	0.375000	0.592490
O3761	O376	0.614920	0.400490	0.556290
Mo1421	Mo142	0.161700	0.902870	0.067040
Mo1431	Mo143	0.241610	0.948490	0.144110
Mo1441	Mo144	0.264140	0.867520	0.149910
P481	P48	0.243530	0.900690	0.073210
O3771	O377	0.256420	0.905870	0.037440
O3781	O378	0.208040	0.883970	0.071760
O3791	O379	0.153600	0.852230	0.083160
O3801	O380	0.140090	0.791410	0.081290
O3811	O381	0.241920	0.934640	0.090950
O3821	O382	0.229890	0.901070	0.147720
O3831	O383	0.265480	0.875000	0.092490
O3841	O384	0.114920	0.900490	0.056290
Mo1451	Mo145	0.817040	0.652870	0.911700
Mo1461	Mo146	0.894110	0.698490	0.991610
Mo1471	Mo147	0.899910	0.617520	0.014140
P491	P49	0.823210	0.650690	0.993530
O3851	O385	0.787440	0.655870	0.006420
O3861	O386	0.821760	0.633970	0.958040
O3871	O387	0.833160	0.602230	0.903600
O3881	O388	0.831290	0.541410	0.890090
O3891	O389	0.840950	0.684640	0.991920
O3901	O390	0.897720	0.651070	0.979890
O3911	O391	0.842490	0.625000	0.015480
O3921	O392	0.806290	0.650490	0.864920
Mo1481	Mo148	0.317040	0.152870	0.411700
Mo1491	Mo149	0.394110	0.198490	0.491610
Mo1501	Mo150	0.399910	0.117520	0.514140
P501	P50	0.323210	0.150690	0.493530
O3931	O393	0.287440	0.155870	0.506420
O3941	O394	0.321760	0.133970	0.458040
O3951	O395	0.333160	0.102230	0.403600
O3961	O396	0.331290	0.041410	0.390090
O3971	O397	0.340950	0.184640	0.491920
O3981	O398	0.397720	0.151070	0.479890
O3991	O399	0.342490	0.125000	0.515480
O4001	O400	0.306290	0.150490	0.364920
Mo1511	Mo151	0.682960	0.347130	0.411700
Mo1521	Mo152	0.605890	0.301510	0.491610
Mo1531	Mo153	0.600090	0.382480	0.514140
P511	P51	0.676790	0.349310	0.493530
O4011	O401	0.712560	0.344130	0.506420
O4021	O402	0.678240	0.366030	0.458040
O4031	O403	0.666840	0.397770	0.403600
O4041	O404	0.668710	0.458590	0.390090
O4051	O405	0.659050	0.315360	0.491920
O4061	O406	0.602280	0.348930	0.479890
O4071	O407	0.657510	0.375000	0.515480
O4081	O408	0.693710	0.349510	0.364920
Mo1541	Mo154	0.182960	0.847130	0.911700
Mo1551	Mo155	0.105890	0.801510	0.991610
Mo1561	Mo156	0.100090	0.882480	0.014140
P521	P52	0.176790	0.849310	0.993530
O4091	O409	0.212560	0.844130	0.006420
O4101	O410	0.178240	0.866030	0.958040
O4111	O411	0.166840	0.897770	0.903600
O4121	O412	0.168710	0.958590	0.890090
O4131	O413	0.159050	0.815360	0.991920
O4141	O414	0.102280	0.848930	0.979890
O4151	O415	0.157510	0.875000	0.015480
O4161	O416	0.193710	0.849510	0.864920
Mo1571	Mo157	0.182960	0.152870	0.588300
Mo1581	Mo158	0.105890	0.198490	0.508390
Mo1591	Mo159	0.100090	0.117520	0.485860
P531	P53	0.176790	0.150690	0.506470
O4171	O417	0.212560	0.155870	0.493580
O4181	O418	0.178240	0.133970	0.541960
O4191	O419	0.166840	0.102230	0.596400
O4201	O420	0.168710	0.041410	0.609910
O4211	O421	0.159050	0.184640	0.508080
O4221	O422	0.102280	0.151070	0.520110
O4231	O423	0.157510	0.125000	0.484520
O4241	O424	0.193710	0.150490	0.635080
Mo1601	Mo160	0.682960	0.652870	0.088300
Mo1611	Mo161	0.605890	0.698490	0.008390
Mo1621	Mo162	0.600090	0.617520	0.985860
P541	P54	0.676790	0.650690	0.006470
O4251	O425	0.712560	0.655870	0.993580
O4261	O426	0.678240	0.633970	0.041960
O4271	O427	0.666840	0.602230	0.096400
O4281	O428	0.668710	0.541410	0.109910
O4291	O429	0.659050	0.684640	0.008080
O4301	O430	0.602280	0.651070	0.020110
O4311	O431	0.657510	0.625000	0.984520
O4321	O432	0.693710	0.650490	0.135080
Mo1631	Mo163	0.317040	0.847130	0.088300
Mo1641	Mo164	0.394110	0.801510	0.008390
Mo1651	Mo165	0.399910	0.882480	0.985860
P551	P55	0.323210	0.849310	0.006470
O4331	O433	0.287440	0.844130	0.993580
O4341	O434	0.321760	0.866030	0.041960
O4351	O435	0.333160	0.897770	0.096400
O4361	O436	0.331290	0.958590	0.109910
O4371	O437	0.340950	0.815360	0.008080
O4381	O438	0.397720	0.848930	0.020110
O4391	O439	0.342490	0.875000	0.984520
O4401	O440	0.306290	0.849510	0.135080
Mo1661	Mo166	0.817040	0.347130	0.588300
Mo1671	Mo167	0.894110	0.301510	0.508390
Mo1681	Mo168	0.899910	0.382480	0.485860
P561	P56	0.823210	0.349310	0.506470
O4411	O441	0.787440	0.344130	0.493580
O4421	O442	0.821760	0.366030	0.541960
O4431	O443	0.833160	0.397770	0.596400
O4441	O444	0.831290	0.458590	0.609910
O4451	O445	0.840950	0.315360	0.508080
O4461	O446	0.897720	0.348930	0.520110
O4471	O447	0.842490	0.375000	0.484520
O4481	O448	0.806290	0.349510	0.635080
Mo1691	Mo169	0.911700	0.817040	0.652870
Mo1701	Mo170	0.991610	0.894110	0.698490
Mo1711	Mo171	0.014140	0.899910	0.617520
P571	P57	0.993530	0.823210	0.650690
O4491	O449	0.006420	0.787440	0.655870
O4501	O450	0.958040	0.821760	0.633970
O4511	O451	0.903600	0.833160	0.602230
O4521	O452	0.890090	0.831290	0.541410
O4531	O453	0.991920	0.840950	0.684640
O4541	O454	0.979890	0.897720	0.651070
O4551	O455	0.015480	0.842490	0.625000
O4561	O456	0.864920	0.806290	0.650490
Mo1721	Mo172	0.411700	0.317040	0.152870
Mo1731	Mo173	0.491610	0.394110	0.198490
Mo1741	Mo174	0.514140	0.399910	0.117520
P581	P58	0.493530	0.323210	0.150690
O4571	O457	0.506420	0.287440	0.155870
O4581	O458	0.458040	0.321760	0.133970
O4591	O459	0.403600	0.333160	0.102230
O4601	O460	0.390090	0.331290	0.041410
O4611	O461	0.491920	0.340950	0.184640
O4621	O462	0.479890	0.397720	0.151070
O4631	O463	0.515480	0.342490	0.125000
O4641	O464	0.364920	0.306290	0.150490
Mo1751	Mo175	0.411700	0.682960	0.347130
Mo1761	Mo176	0.491610	0.605890	0.301510
Mo1771	Mo177	0.514140	0.600090	0.382480
P591	P59	0.493530	0.676790	0.349310
O4651	O465	0.506420	0.712560	0.344130
O4661	O466	0.458040	0.678240	0.366030
O4671	O467	0.403600	0.666840	0.397770
O4681	O468	0.390090	0.668710	0.458590
O4691	O469	0.491920	0.659050	0.315360
O4701	O470	0.479890	0.602280	0.348930
O4711	O471	0.515480	0.657510	0.375000
O4721	O472	0.364920	0.693710	0.349510
Mo1781	Mo178	0.911700	0.182960	0.847130
Mo1791	Mo179	0.991610	0.105890	0.801510
Mo1801	Mo180	0.014140	0.100090	0.882480
P601	P60	0.993530	0.176790	0.849310
O4731	O473	0.006420	0.212560	0.844130
O4741	O474	0.958040	0.178240	0.866030
O4751	O475	0.903600	0.166840	0.897770
O4761	O476	0.890090	0.168710	0.958590
O4771	O477	0.991920	0.159050	0.815360
O4781	O478	0.979890	0.102280	0.848930
O4791	O479	0.015480	0.157510	0.875000
O4801	O480	0.864920	0.193710	0.849510
Mo1811	Mo181	0.588300	0.182960	0.152870
Mo1821	Mo182	0.508390	0.105890	0.198490
Mo1831	Mo183	0.485860	0.100090	0.117520
P611	P61	0.506470	0.176790	0.150690
O4811	O481	0.493580	0.212560	0.155870
O4821	O482	0.541960	0.178240	0.133970
O4831	O483	0.596400	0.166840	0.102230
O4841	O484	0.609910	0.168710	0.041410
O4851	O485	0.508080	0.159050	0.184640
O4861	O486	0.520110	0.102280	0.151070
O4871	O487	0.484520	0.157510	0.125000
O4881	O488	0.635080	0.193710	0.150490
Mo1841	Mo184	0.088300	0.682960	0.652870
Mo1851	Mo185	0.008390	0.605890	0.698490
Mo1861	Mo186	0.985860	0.600090	0.617520
P621	P62	0.006470	0.676790	0.650690
O4891	O489	0.993580	0.712560	0.655870
O4901	O490	0.041960	0.678240	0.633970
O4911	O491	0.096400	0.666840	0.602230
O4921	O492	0.109910	0.668710	0.541410
O4931	O493	0.008080	0.659050	0.684640
O4941	O494	0.020110	0.602280	0.651070
O4951	O495	0.984520	0.657510	0.625000
O4961	O496	0.135080	0.693710	0.650490
Mo1871	Mo187	0.088300	0.317040	0.847130
Mo1881	Mo188	0.008390	0.394110	0.801510
Mo1891	Mo189	0.985860	0.399910	0.882480
P631	P63	0.006470	0.323210	0.849310
O4971	O497	0.993580	0.287440	0.844130
O4981	O498	0.041960	0.321760	0.866030
O4991	O499	0.096400	0.333160	0.897770
O5001	O500	0.109910	0.331290	0.958590
O5011	O501	0.008080	0.340950	0.815360
O5021	O502	0.020110	0.397720	0.848930
O5031	O503	0.984520	0.342490	0.875000
O5041	O504	0.135080	0.306290	0.849510
Mo1901	Mo190	0.588300	0.817040	0.347130
Mo1911	Mo191	0.508390	0.894110	0.301510
Mo1921	Mo192	0.485860	0.899910	0.382480
P641	P64	0.506470	0.823210	0.349310
O5051	O505	0.493580	0.787440	0.344130
O5061	O506	0.541960	0.821760	0.366030
O5071	O507	0.596400	0.833160	0.397770
O5081	O508	0.609910	0.831290	0.458590
O5091	O509	0.508080	0.840950	0.315360
O5101	O510	0.520110	0.897720	0.348930
O5111	O511	0.484520	0.842490	0.375000
O5121	O512	0.635080	0.806290	0.349510
Mo1931	Mo193	0.652870	0.911700	0.817040
Mo1941	Mo194	0.698490	0.991610	0.894110
Mo1951	Mo195	0.617520	0.014140	0.899910
P651	P65	0.650690	0.993530	0.823210
O5131	O513	0.655870	0.006420	0.787440
O5141	O514	0.633970	0.958040	0.821760
O5151	O515	0.602230	0.903600	0.833160
O5161	O516	0.541410	0.890090	0.831290
O5171	O517	0.684640	0.991920	0.840950
O5181	O518	0.651070	0.979890	0.897720
O5191	O519	0.625000	0.015480	0.842490
O5201	O520	0.650490	0.864920	0.806290
Mo1961	Mo196	0.152870	0.411700	0.317040
Mo1971	Mo197	0.198490	0.491610	0.394110
Mo1981	Mo198	0.117520	0.514140	0.399910
P661	P66	0.150690	0.493530	0.323210
O5211	O521	0.155870	0.506420	0.287440
O5221	O522	0.133970	0.458040	0.321760
O5231	O523	0.102230	0.403600	0.333160
O5241	O524	0.041410	0.390090	0.331290
O5251	O525	0.184640	0.491920	0.340950
O5261	O526	0.151070	0.479890	0.397720
O5271	O527	0.125000	0.515480	0.342490
O5281	O528	0.150490	0.364920	0.306290
Mo1991	Mo199	0.347130	0.411700	0.682960
Mo2001	Mo200	0.301510	0.491610	0.605890
Mo2011	Mo201	0.382480	0.514140	0.600090
P671	P67	0.349310	0.493530	0.676790
O5291	O529	0.344130	0.506420	0.712560
O5301	O530	0.366030	0.458040	0.678240
O5311	O531	0.397770	0.403600	0.666840
O5321	O532	0.458590	0.390090	0.668710
O5331	O533	0.315360	0.491920	0.659050
O5341	O534	0.348930	0.479890	0.602280
O5351	O535	0.375000	0.515480	0.657510
O5361	O536	0.349510	0.364920	0.693710
Mo2021	Mo202	0.847130	0.911700	0.182960
Mo2031	Mo203	0.801510	0.991610	0.105890
Mo2041	Mo204	0.882480	0.014140	0.100090
P681	P68	0.849310	0.993530	0.176790
O5371	O537	0.844130	0.006420	0.212560
O5381	O538	0.866030	0.958040	0.178240
O5391	O539	0.897770	0.903600	0.166840
O5401	O540	0.958590	0.890090	0.168710
O5411	O541	0.815360	0.991920	0.159050
O5421	O542	0.848930	0.979890	0.102280
O5431	O543	0.875000	0.015480	0.157510
O5441	O544	0.849510	0.864920	0.193710
Mo2051	Mo205	0.152870	0.588300	0.182960
Mo2061	Mo206	0.198490	0.508390	0.105890
Mo2071	Mo207	0.117520	0.485860	0.100090
P691	P69	0.150690	0.506470	0.176790
O5451	O545	0.155870	0.493580	0.212560
O5461	O546	0.133970	0.541960	0.178240
O5471	O547	0.102230	0.596400	0.166840
O5481	O548	0.041410	0.609910	0.168710
O5491	O549	0.184640	0.508080	0.159050
O5501	O550	0.151070	0.520110	0.102280
O5511	O551	0.125000	0.484520	0.157510
O5521	O552	0.150490	0.635080	0.193710
Mo2081	Mo208	0.652870	0.088300	0.682960
Mo2091	Mo209	0.698490	0.008390	0.605890
Mo2101	Mo210	0.617520	0.985860	0.600090
P701	P70	0.650690	0.006470	0.676790
O5531	O553	0.655870	0.993580	0.712560
O5541	O554	0.633970	0.041960	0.678240
O5551	O555	0.602230	0.096400	0.666840
O5561	O556	0.541410	0.109910	0.668710
O5571	O557	0.684640	0.008080	0.659050
O5581	O558	0.651070	0.020110	0.602280
O5591	O559	0.625000	0.984520	0.657510
O5601	O560	0.650490	0.135080	0.693710
Mo2111	Mo211	0.847130	0.088300	0.317040
Mo2121	Mo212	0.801510	0.008390	0.394110
Mo2131	Mo213	0.882480	0.985860	0.399910
P711	P71	0.849310	0.006470	0.323210
O5611	O561	0.844130	0.993580	0.287440
O5621	O562	0.866030	0.041960	0.321760
O5631	O563	0.897770	0.096400	0.333160
O5641	O564	0.958590	0.109910	0.331290
O5651	O565	0.815360	0.008080	0.340950
O5661	O566	0.848930	0.020110	0.397720
O5671	O567	0.875000	0.984520	0.342490
O5681	O568	0.849510	0.135080	0.306290
Mo2141	Mo214	0.347130	0.588300	0.817040
Mo2151	Mo215	0.301510	0.508390	0.894110
Mo2161	Mo216	0.382480	0.485860	0.899910
P721	P72	0.349310	0.506470	0.823210
O5691	O569	0.344130	0.493580	0.787440
O5701	O570	0.366030	0.541960	0.821760
O5711	O571	0.397770	0.596400	0.833160
O5721	O572	0.458590	0.609910	0.831290
O5731	O573	0.315360	0.508080	0.840950
O5741	O574	0.348930	0.520110	0.897720
O5751	O575	0.375000	0.484520	0.842490
O5761	O576	0.349510	0.635080	0.806290
Mo2171	Mo217	0.902870	0.567040	0.838300
Mo2181	Mo218	0.948490	0.644110	0.758390
Mo2191	Mo219	0.867520	0.649910	0.735860
P731	P73	0.900690	0.573210	0.756470
O5771	O577	0.905870	0.537440	0.743580
O5781	O578	0.883970	0.571760	0.791960
O5791	O579	0.852230	0.583160	0.846400
O5801	O580	0.791410	0.581290	0.859910
O5811	O581	0.934640	0.590950	0.758080
O5821	O582	0.901070	0.647720	0.770110
O5831	O583	0.875000	0.592490	0.734520
O5841	O584	0.900490	0.556290	0.885080
Mo2201	Mo220	0.402870	0.067040	0.338300
Mo2211	Mo221	0.448490	0.144110	0.258390
Mo2221	Mo222	0.367520	0.149910	0.235860
P741	P74	0.400690	0.073210	0.256470
O5851	O585	0.405870	0.037440	0.243580
O5861	O586	0.383970	0.071760	0.291960
O5871	O587	0.352230	0.083160	0.346400
O5881	O588	0.291410	0.081290	0.359910
O5891	O589	0.434640	0.090950	0.258080
O5901	O590	0.401070	0.147720	0.270110
O5911	O591	0.375000	0.092490	0.234520
O5921	O592	0.400490	0.056290	0.385080
Mo2231	Mo223	0.597130	0.432960	0.338300
Mo2241	Mo224	0.551510	0.355890	0.258390
Mo2251	Mo225	0.632480	0.350090	0.235860
P751	P75	0.599310	0.426790	0.256470
O5931	O593	0.594130	0.462560	0.243580
O5941	O594	0.616030	0.428240	0.291960
O5951	O595	0.647770	0.416840	0.346400
O5961	O596	0.708590	0.418710	0.359910
O5971	O597	0.565360	0.409050	0.258080
O5981	O598	0.598930	0.352280	0.270110
O5991	O599	0.625000	0.407510	0.234520
O6001	O600	0.599510	0.443710	0.385080
Mo2261	Mo226	0.097130	0.932960	0.838300
Mo2271	Mo227	0.051510	0.855890	0.758390
Mo2281	Mo228	0.132480	0.850090	0.735860
P761	P76	0.099310	0.926790	0.756470
O6011	O601	0.094130	0.962560	0.743580
O6021	O602	0.116030	0.928240	0.791960
O6031	O603	0.147770	0.916840	0.846400
O6041	O604	0.208590	0.918710	0.859910
O6051	O605	0.065360	0.909050	0.758080
O6061	O606	0.098930	0.852280	0.770110
O6071	O607	0.125000	0.907510	0.734520
O6081	O608	0.099510	0.943710	0.885080
Mo2291	Mo229	0.402870	0.932960	0.161700
Mo2301	Mo230	0.448490	0.855890	0.241610
Mo2311	Mo231	0.367520	0.850090	0.264140
P771	P77	0.400690	0.926790	0.243530
O6091	O609	0.405870	0.962560	0.256420
O6101	O610	0.383970	0.928240	0.208040
O6111	O611	0.352230	0.916840	0.153600
O6121	O612	0.291410	0.918710	0.140090
O6131	O613	0.434640	0.909050	0.241920
O6141	O614	0.401070	0.852280	0.229890
O6151	O615	0.375000	0.907510	0.265480
O6161	O616	0.400490	0.943710	0.114920
Mo2321	Mo232	0.902870	0.432960	0.661700
Mo2331	Mo233	0.948490	0.355890	0.741610
Mo2341	Mo234	0.867520	0.350090	0.764140
P781	P78	0.900690	0.426790	0.743530
O6171	O617	0.905870	0.462560	0.756420
O6181	O618	0.883970	0.428240	0.708040
O6191	O619	0.852230	0.416840	0.653600
O6201	O620	0.791410	0.418710	0.640090
O6211	O621	0.934640	0.409050	0.741920
O6221	O622	0.901070	0.352280	0.729890
O6231	O623	0.875000	0.407510	0.765480
O6241	O624	0.900490	0.443710	0.614920
Mo2351	Mo235	0.097130	0.067040	0.661700
Mo2361	Mo236	0.051510	0.144110	0.741610
Mo2371	Mo237	0.132480	0.149910	0.764140
P791	P79	0.099310	0.073210	0.743530
O6251	O625	0.094130	0.037440	0.756420
O6261	O626	0.116030	0.071760	0.708040
O6271	O627	0.147770	0.083160	0.653600
O6281	O628	0.208590	0.081290	0.640090
O6291	O629	0.065360	0.090950	0.741920
O6301	O630	0.098930	0.147720	0.729890
O6311	O631	0.125000	0.092490	0.765480
O6321	O632	0.099510	0.056290	0.614920
Mo2381	Mo238	0.597130	0.567040	0.161700
Mo2391	Mo239	0.551510	0.644110	0.241610
Mo2401	Mo240	0.632480	0.649910	0.264140
P801	P80	0.599310	0.573210	0.243530
O6331	O633	0.594130	0.537440	0.256420
O6341	O634	0.616030	0.571760	0.208040
O6351	O635	0.647770	0.583160	0.153600
O6361	O636	0.708590	0.581290	0.140090
O6371	O637	0.565360	0.590950	0.241920
O6381	O638	0.598930	0.647720	0.229890
O6391	O639	0.625000	0.592490	0.265480
O6401	O640	0.599510	0.556290	0.114920
Mo2411	Mo241	0.067040	0.661700	0.097130
Mo2421	Mo242	0.144110	0.741610	0.051510
Mo2431	Mo243	0.149910	0.764140	0.132480
P811	P81	0.073210	0.743530	0.099310
O6411	O641	0.037440	0.756420	0.094130
O6421	O642	0.071760	0.708040	0.116030
O6431	O643	0.083160	0.653600	0.147770
O6441	O644	0.081290	0.640090	0.208590
O6451	O645	0.090950	0.741920	0.065360
O6461	O646	0.147720	0.729890	0.098930
O6471	O647	0.092490	0.765480	0.125000
O6481	O648	0.056290	0.614920	0.099510
Mo2441	Mo244	0.567040	0.161700	0.597130
Mo2451	Mo245	0.644110	0.241610	0.551510
Mo2461	Mo246	0.649910	0.264140	0.632480
P821	P82	0.573210	0.243530	0.599310
O6491	O649	0.537440	0.256420	0.594130
O6501	O650	0.571760	0.208040	0.616030
O6511	O651	0.583160	0.153600	0.647770
O6521	O652	0.581290	0.140090	0.708590
O6531	O653	0.590950	0.241920	0.565360
O6541	O654	0.647720	0.229890	0.598930
O6551	O655	0.592490	0.265480	0.625000
O6561	O656	0.556290	0.114920	0.599510
Mo2471	Mo247	0.932960	0.161700	0.402870
Mo2481	Mo248	0.855890	0.241610	0.448490
Mo2491	Mo249	0.850090	0.264140	0.367520
P831	P83	0.926790	0.243530	0.400690
O6571	O657	0.962560	0.256420	0.405870
O6581	O658	0.928240	0.208040	0.383970
O6591	O659	0.916840	0.153600	0.352230
O6601	O660	0.918710	0.140090	0.291410
O6611	O661	0.909050	0.241920	0.434640
O6621	O662	0.852280	0.229890	0.401070
O6631	O663	0.907510	0.265480	0.375000
O6641	O664	0.943710	0.114920	0.400490
Mo2501	Mo250	0.432960	0.661700	0.902870
Mo2511	Mo251	0.355890	0.741610	0.948490
Mo2521	Mo252	0.350090	0.764140	0.867520
P841	P84	0.426790	0.743530	0.900690
O6651	O665	0.462560	0.756420	0.905870
O6661	O666	0.428240	0.708040	0.883970
O6671	O667	0.416840	0.653600	0.852230
O6681	O668	0.418710	0.640090	0.791410
O6691	O669	0.409050	0.741920	0.934640
O6701	O670	0.352280	0.729890	0.901070
O6711	O671	0.407510	0.765480	0.875000
O6721	O672	0.443710	0.614920	0.900490
Mo2531	Mo253	0.432960	0.338300	0.597130
Mo2541	Mo254	0.355890	0.258390	0.551510
Mo2551	Mo255	0.350090	0.235860	0.632480
P851	P85	0.426790	0.256470	0.599310
O6731	O673	0.462560	0.243580	0.594130
O6741	O674	0.428240	0.291960	0.616030
O6751	O675	0.416840	0.346400	0.647770
O6761	O676	0.418710	0.359910	0.708590
O6771	O677	0.409050	0.258080	0.565360
O6781	O678	0.352280	0.270110	0.598930
O6791	O679	0.407510	0.234520	0.625000
O6801	O680	0.443710	0.385080	0.599510
Mo2561	Mo256	0.932960	0.838300	0.097130
Mo2571	Mo257	0.855890	0.758390	0.051510
Mo2581	Mo258	0.850090	0.735860	0.132480
P861	P86	0.926790	0.756470	0.099310
O6811	O681	0.962560	0.743580	0.094130
O6821	O682	0.928240	0.791960	0.116030
O6831	O683	0.916840	0.846400	0.147770
O6841	O684	0.918710	0.859910	0.208590
O6851	O685	0.909050	0.758080	0.065360
O6861	O686	0.852280	0.770110	0.098930
O6871	O687	0.907510	0.734520	0.125000
O6881	O688	0.943710	0.885080	0.099510
Mo2591	Mo259	0.567040	0.838300	0.902870
Mo2601	Mo260	0.644110	0.758390	0.948490
Mo2611	Mo261	0.649910	0.735860	0.867520
P871	P87	0.573210	0.756470	0.900690
O6891	O689	0.537440	0.743580	0.905870
O6901	O690	0.571760	0.791960	0.883970
O6911	O691	0.583160	0.846400	0.852230
O6921	O692	0.581290	0.859910	0.791410
O6931	O693	0.590950	0.758080	0.934640
O6941	O694	0.647720	0.770110	0.901070
O6951	O695	0.592490	0.734520	0.875000
O6961	O696	0.556290	0.885080	0.900490
Mo2621	Mo262	0.067040	0.338300	0.402870
Mo2631	Mo263	0.144110	0.258390	0.448490
Mo2641	Mo264	0.149910	0.235860	0.367520
P881	P88	0.073210	0.256470	0.400690
O6971	O697	0.037440	0.243580	0.405870
O6981	O698	0.071760	0.291960	0.383970
O6991	O699	0.083160	0.346400	0.352230
O7001	O700	0.081290	0.359910	0.291410
O7011	O701	0.090950	0.258080	0.434640
O7021	O702	0.147720	0.270110	0.401070
O7031	O703	0.092490	0.234520	0.375000
O7041	O704	0.056290	0.385080	0.400490
Mo2651	Mo265	0.161700	0.402870	0.932960
Mo2661	Mo266	0.241610	0.448490	0.855890
Mo2671	Mo267	0.264140	0.367520	0.850090
P891	P89	0.243530	0.400690	0.926790
O7051	O705	0.256420	0.405870	0.962560
O7061	O706	0.208040	0.383970	0.928240
O7071	O707	0.153600	0.352230	0.916840
O7081	O708	0.140090	0.291410	0.918710
O7091	O709	0.241920	0.434640	0.909050
O7101	O710	0.229890	0.401070	0.852280
O7111	O711	0.265480	0.375000	0.907510
O7121	O712	0.114920	0.400490	0.943710
Mo2681	Mo268	0.661700	0.902870	0.432960
Mo2691	Mo269	0.741610	0.948490	0.355890
Mo2701	Mo270	0.764140	0.867520	0.350090
P901	P90	0.743530	0.900690	0.426790
O7131	O713	0.756420	0.905870	0.462560
O7141	O714	0.708040	0.883970	0.428240
O7151	O715	0.653600	0.852230	0.416840
O7161	O716	0.640090	0.791410	0.418710
O7171	O717	0.741920	0.934640	0.409050
O7181	O718	0.729890	0.901070	0.352280
O7191	O719	0.765480	0.875000	0.407510
O7201	O720	0.614920	0.900490	0.443710
Mo2711	Mo271	0.661700	0.097130	0.067040
Mo2721	Mo272	0.741610	0.051510	0.144110
Mo2731	Mo273	0.764140	0.132480	0.149910
P911	P91	0.743530	0.099310	0.073210
O7211	O721	0.756420	0.094130	0.037440
O7221	O722	0.708040	0.116030	0.071760
O7231	O723	0.653600	0.147770	0.083160
O7241	O724	0.640090	0.208590	0.081290
O7251	O725	0.741920	0.065360	0.090950
O7261	O726	0.729890	0.098930	0.147720
O7271	O727	0.765480	0.125000	0.092490
O7281	O728	0.614920	0.099510	0.056290
Mo2741	Mo274	0.161700	0.597130	0.567040
Mo2751	Mo275	0.241610	0.551510	0.644110
Mo2761	Mo276	0.264140	0.632480	0.649910
P921	P92	0.243530	0.599310	0.573210
O7291	O729	0.256420	0.594130	0.537440
O7301	O730	0.208040	0.616030	0.571760
O7311	O731	0.153600	0.647770	0.583160
O7321	O732	0.140090	0.708590	0.581290
O7331	O733	0.241920	0.565360	0.590950
O7341	O734	0.229890	0.598930	0.647720
O7351	O735	0.265480	0.625000	0.592490
O7361	O736	0.114920	0.599510	0.556290
Mo2771	Mo277	0.838300	0.902870	0.567040
Mo2781	Mo278	0.758390	0.948490	0.644110
Mo2791	Mo279	0.735860	0.867520	0.649910
P931	P93	0.756470	0.900690	0.573210
O7371	O737	0.743580	0.905870	0.537440
O7381	O738	0.791960	0.883970	0.571760
O7391	O739	0.846400	0.852230	0.583160
O7401	O740	0.859910	0.791410	0.581290
O7411	O741	0.758080	0.934640	0.590950
O7421	O742	0.770110	0.901070	0.647720
O7431	O743	0.734520	0.875000	0.592490
O7441	O744	0.885080	0.900490	0.556290
Mo2801	Mo280	0.338300	0.402870	0.067040
Mo2811	Mo281	0.258390	0.448490	0.144110
Mo2821	Mo282	0.235860	0.367520	0.149910
P941	P94	0.256470	0.400690	0.073210
O7451	O745	0.243580	0.405870	0.037440
O7461	O746	0.291960	0.383970	0.071760
O7471	O747	0.346400	0.352230	0.083160
O7481	O748	0.359910	0.291410	0.081290
O7491	O749	0.258080	0.434640	0.090950
O7501	O750	0.270110	0.401070	0.147720
O7511	O751	0.234520	0.375000	0.092490
O7521	O752	0.385080	0.400490	0.056290
Mo2831	Mo283	0.338300	0.597130	0.432960
Mo2841	Mo284	0.258390	0.551510	0.355890
Mo2851	Mo285	0.235860	0.632480	0.350090
P951	P95	0.256470	0.599310	0.426790
O7531	O753	0.243580	0.594130	0.462560
O7541	O754	0.291960	0.616030	0.428240
O7551	O755	0.346400	0.647770	0.416840
O7561	O756	0.359910	0.708590	0.418710
O7571	O757	0.258080	0.565360	0.409050
O7581	O758	0.270110	0.598930	0.352280
O7591	O759	0.234520	0.625000	0.407510
O7601	O760	0.385080	0.599510	0.443710
Mo2861	Mo286	0.838300	0.097130	0.932960
Mo2871	Mo287	0.758390	0.051510	0.855890
Mo2881	Mo288	0.735860	0.132480	0.850090
P961	P96	0.756470	0.099310	0.926790
O7611	O761	0.743580	0.094130	0.962560
O7621	O762	0.791960	0.116030	0.928240
O7631	O763	0.846400	0.147770	0.916840
O7641	O764	0.859910	0.208590	0.918710
O7651	O765	0.758080	0.065360	0.909050
O7661	O766	0.770110	0.098930	0.852280
O7671	O767	0.734520	0.125000	0.907510
O7681	O768	0.885080	0.099510	0.943710
Zn11	Zn1	0.250000	0.375000	0.000000
Zn21	Zn2	0.250000	0.625000	0.500000
Zn31	Zn3	0.750000	0.875000	0.500000
Zn41	Zn4	0.750000	0.125000	0.000000
Zn51	Zn5	0.000000	0.250000	0.375000
Zn61	Zn6	0.500000	0.250000	0.625000
Zn71	Zn7	0.500000	0.750000	0.875000
Zn81	Zn8	0.000000	0.750000	0.125000
Zn91	Zn9	0.375000	0.000000	0.250000
Zn101	Zn10	0.625000	0.500000	0.250000
Zn111	Zn11	0.875000	0.500000	0.750000
Zn121	Zn12	0.125000	0.000000	0.750000
Zn131	Zn13	0.125000	0.500000	0.250000
Zn141	Zn14	0.375000	0.500000	0.750000
Zn151	Zn15	0.625000	0.000000	0.750000
Zn161	Zn16	0.875000	0.000000	0.250000
Zn171	Zn17	0.000000	0.250000	0.875000
Zn181	Zn18	0.000000	0.750000	0.625000
Zn191	Zn19	0.500000	0.750000	0.375000
Zn201	Zn20	0.500000	0.250000	0.125000
Zn211	Zn21	0.750000	0.625000	0.000000
Zn221	Zn22	0.250000	0.875000	0.000000
Zn231	Zn23	0.250000	0.125000	0.500000
Zn241	Zn24	0.750000	0.375000	0.500000
P971	P97	0.173020	0.423020	0.125000
P981	P98	0.673020	0.923020	0.625000
P991	P99	0.326980	0.576980	0.625000
P1001	P100	0.826980	0.076980	0.125000
P1011	P101	0.826980	0.923020	0.375000
P1021	P102	0.326980	0.423020	0.875000
P1031	P103	0.673020	0.076980	0.875000
P1041	P104	0.173020	0.576980	0.375000
P1051	P105	0.125000	0.173020	0.423020
P1061	P106	0.625000	0.673020	0.923020
P1071	P107	0.625000	0.326980	0.576980
P1081	P108	0.125000	0.826980	0.076980
P1091	P109	0.375000	0.826980	0.923020
P1101	P110	0.875000	0.326980	0.423020
P1111	P111	0.875000	0.673020	0.076980
P1121	P112	0.375000	0.173020	0.576980
P1131	P113	0.423020	0.125000	0.173020
P1141	P114	0.923020	0.625000	0.673020
P1151	P115	0.576980	0.625000	0.326980
P1161	P116	0.076980	0.125000	0.826980
P1171	P117	0.923020	0.375000	0.826980
P1181	P118	0.423020	0.875000	0.326980
P1191	P119	0.076980	0.875000	0.673020
P1201	P120	0.576980	0.375000	0.173020
P1211	P121	0.826980	0.576980	0.875000
P1221	P122	0.326980	0.076980	0.375000
P1231	P123	0.673020	0.423020	0.375000
P1241	P124	0.173020	0.923020	0.875000
P1251	P125	0.173020	0.076980	0.625000
P1261	P126	0.673020	0.576980	0.125000
P1271	P127	0.326980	0.923020	0.125000
P1281	P128	0.826980	0.423020	0.625000
P1291	P129	0.875000	0.826980	0.576980
P1301	P130	0.375000	0.326980	0.076980
P1311	P131	0.375000	0.673020	0.423020
P1321	P132	0.875000	0.173020	0.923020
P1331	P133	0.625000	0.173020	0.076980
P1341	P134	0.125000	0.673020	0.576980
P1351	P135	0.125000	0.326980	0.923020
P1361	P136	0.625000	0.826980	0.423020
P1371	P137	0.576980	0.875000	0.826980
P1381	P138	0.076980	0.375000	0.326980
P1391	P139	0.423020	0.375000	0.673020
P1401	P140	0.923020	0.875000	0.173020
P1411	P141	0.076980	0.625000	0.173020
P1421	P142	0.576980	0.125000	0.673020
P1431	P143	0.923020	0.125000	0.326980
P1441	P144	0.423020	0.625000	0.826980
O7691	O769	0.125000	0.264980	0.985020
O7701	O770	0.625000	0.764980	0.485020
O7711	O771	0.375000	0.735020	0.485020
O7721	O772	0.875000	0.764980	0.514980
O7731	O773	0.625000	0.235020	0.014980
O7741	O774	0.985020	0.125000	0.264980
O7751	O775	0.485020	0.625000	0.764980
O7761	O776	0.485020	0.375000	0.735020
O7771	O777	0.514980	0.875000	0.764980
O7781	O778	0.014980	0.625000	0.235020
O7791	O779	0.264980	0.985020	0.125000
O7801	O780	0.764980	0.485020	0.625000
O7811	O781	0.735020	0.485020	0.375000
O7821	O782	0.764980	0.514980	0.875000
O7831	O783	0.235020	0.014980	0.625000
O7841	O784	0.014980	0.375000	0.264980
O7851	O785	0.514980	0.125000	0.735020
O7861	O786	0.985020	0.875000	0.235020
O7871	O787	0.875000	0.235020	0.985020
O7881	O788	0.125000	0.735020	0.514980
O7891	O789	0.375000	0.264980	0.014980
O7901	O790	0.735020	0.514980	0.125000
O7911	O791	0.235020	0.985020	0.875000
O7921	O792	0.264980	0.014980	0.375000
O7931	O793	0.875000	0.735020	0.014980
O7941	O794	0.375000	0.235020	0.514980
O7951	O795	0.625000	0.264980	0.514980
O7961	O796	0.125000	0.235020	0.485020
O7971	O797	0.375000	0.764980	0.985020
O7981	O798	0.014980	0.875000	0.735020
O7991	O799	0.514980	0.375000	0.235020
O8001	O800	0.514980	0.625000	0.264980
O8011	O801	0.485020	0.125000	0.235020
O8021	O802	0.985020	0.375000	0.764980
O8031	O803	0.735020	0.014980	0.875000
O8041	O804	0.235020	0.514980	0.375000
O8051	O805	0.264980	0.514980	0.625000
O8061	O806	0.235020	0.485020	0.125000
O8071	O807	0.764980	0.985020	0.375000
O8081	O808	0.985020	0.625000	0.735020
O8091	O809	0.485020	0.875000	0.264980
O8101	O810	0.014980	0.125000	0.764980
O8111	O811	0.125000	0.764980	0.014980
O8121	O812	0.875000	0.264980	0.485020
O8131	O813	0.625000	0.735020	0.985020
O8141	O814	0.264980	0.485020	0.875000
O8151	O815	0.764980	0.014980	0.125000
O8161	O816	0.735020	0.985020	0.625000
