data_YUZJOU_clean_PM
_symmetry_space_group_name_H-M	'P1'
_cell_length_a	11.476600
_cell_length_b	11.476600
_cell_length_c	30.555400
_cell_angle_alpha	90.000000
_cell_angle_beta	90.000000
_cell_angle_gamma	90.000000
_symmetry_Int_Tables_number 1

loop_
_symmetry_equiv_pos_as_xyz
'x,y,z'

loop_
_atom_site_label
_atom_site_type_symbol
_atom_site_fract_x
_atom_site_fract_y
_atom_site_fract_z
C11	C1	0.100700	0.017600	0.328510
H11	H1	0.100900	0.100300	0.327200
C21	C2	0.907600	0.970200	0.427600
H21	H2	0.898700	0.887900	0.426800
C31	C3	0.849200	0.034400	0.458240
H31	H3	0.801000	0.994100	0.478500
N11	N1	0.855800	0.151000	0.461550
C41	C4	0.157300	0.954800	0.297000
H41	H4	0.195400	0.995800	0.274100
N21	N2	0.161500	0.838300	0.296950
C51	C5	0.044000	0.840000	0.361620
H51	H5	0.004000	0.796700	0.383400
C61	C6	0.928900	0.202100	0.433710
H61	H6	0.939500	0.283900	0.436100
C71	C7	0.989800	0.144300	0.401830
H71	H7	0.039000	0.187000	0.382600
C81	C8	0.980900	0.026100	0.397190
C91	C9	0.103900	0.782900	0.328620
H81	H8	0.103900	0.700200	0.328500
C101	C10	0.042800	0.961500	0.362560
C111	C11	0.399300	0.482400	0.328510
H91	H9	0.399100	0.399700	0.327200
C121	C12	0.592400	0.529800	0.427600
H101	H10	0.601300	0.612100	0.426800
C131	C13	0.650800	0.465600	0.458240
H111	H11	0.699000	0.505900	0.478500
N31	N3	0.644200	0.349000	0.461550
C141	C14	0.342700	0.545200	0.297000
H121	H12	0.304600	0.504200	0.274100
N41	N4	0.338500	0.661700	0.296950
C151	C15	0.456000	0.660000	0.361620
H131	H13	0.496000	0.703300	0.383400
C161	C16	0.571100	0.297900	0.433710
H141	H14	0.560500	0.216100	0.436100
C171	C17	0.510200	0.355700	0.401830
H151	H15	0.461000	0.313000	0.382600
C181	C18	0.519100	0.473900	0.397190
C191	C19	0.396100	0.717100	0.328620
H161	H16	0.396100	0.799800	0.328500
C201	C20	0.457200	0.538500	0.362560
C211	C21	0.517600	0.600700	0.171490
H171	H17	0.600300	0.600900	0.172800
C221	C22	0.470200	0.407600	0.072400
H181	H18	0.387900	0.398700	0.073200
C231	C23	0.534400	0.349200	0.041760
H191	H19	0.494100	0.301000	0.021500
N51	N5	0.651000	0.355800	0.038450
C241	C24	0.454800	0.657300	0.203000
H201	H20	0.495800	0.695400	0.225900
N61	N6	0.338300	0.661500	0.203050
C251	C25	0.340000	0.544000	0.138380
H211	H21	0.296700	0.504000	0.116600
C261	C26	0.702100	0.428900	0.066290
H221	H22	0.783900	0.439500	0.063900
C271	C27	0.644300	0.489800	0.098170
H231	H23	0.687000	0.539000	0.117400
C281	C28	0.526100	0.480900	0.102810
C291	C29	0.282900	0.603900	0.171380
H241	H24	0.200200	0.603900	0.171500
C301	C30	0.461500	0.542800	0.137440
C311	C31	0.982400	0.899300	0.171490
H251	H25	0.899700	0.899100	0.172800
C321	C32	0.029800	0.092400	0.072400
H261	H26	0.112100	0.101300	0.073200
C331	C33	0.965600	0.150800	0.041760
H271	H27	0.005900	0.199000	0.021500
N71	N7	0.849000	0.144200	0.038450
C341	C34	0.045200	0.842700	0.203000
H281	H28	0.004200	0.804600	0.225900
N81	N8	0.161700	0.838500	0.203050
C351	C35	0.160000	0.956000	0.138380
H291	H29	0.203300	0.996000	0.116600
C361	C36	0.797900	0.071100	0.066290
H301	H30	0.716100	0.060500	0.063900
C371	C37	0.855700	0.010200	0.098170
H311	H31	0.813000	0.961000	0.117400
C381	C38	0.973900	0.019100	0.102810
C391	C39	0.217100	0.896100	0.171380
H321	H32	0.299800	0.896100	0.171500
C401	C40	0.038500	0.957200	0.137440
C411	C41	0.517600	0.899300	0.671490
H331	H33	0.600300	0.899100	0.672800
C421	C42	0.470200	0.092400	0.572400
H341	H34	0.387900	0.101300	0.573200
C431	C43	0.534400	0.150800	0.541760
H351	H35	0.494100	0.199000	0.521500
N91	N9	0.651000	0.144200	0.538450
C441	C44	0.454800	0.842700	0.703000
H361	H36	0.495800	0.804600	0.725900
N101	N10	0.338300	0.838500	0.703050
C451	C45	0.340000	0.956000	0.638380
H371	H37	0.296700	0.996000	0.616600
C461	C46	0.702100	0.071100	0.566290
H381	H38	0.783900	0.060500	0.563900
C471	C47	0.644300	0.010200	0.598170
H391	H39	0.687000	0.961000	0.617400
C481	C48	0.526100	0.019100	0.602810
C491	C49	0.282900	0.896100	0.671380
H401	H40	0.200200	0.896100	0.671500
C501	C50	0.461500	0.957200	0.637440
C511	C51	0.982400	0.600700	0.671490
H411	H41	0.899700	0.600900	0.672800
C521	C52	0.029800	0.407600	0.572400
H421	H42	0.112100	0.398700	0.573200
C531	C53	0.965600	0.349200	0.541760
H431	H43	0.005900	0.301000	0.521500
N111	N11	0.849000	0.355800	0.538450
C541	C54	0.045200	0.657300	0.703000
H441	H44	0.004200	0.695400	0.725900
N121	N12	0.161700	0.661500	0.703050
C551	C55	0.160000	0.544000	0.638380
H451	H45	0.203300	0.504000	0.616600
C561	C56	0.797900	0.428900	0.566290
H461	H46	0.716100	0.439500	0.563900
C571	C57	0.855700	0.489800	0.598170
H471	H47	0.813000	0.539000	0.617400
C581	C58	0.973900	0.480900	0.602810
C591	C59	0.217100	0.603900	0.671380
H481	H48	0.299800	0.603900	0.671500
C601	C60	0.038500	0.542800	0.637440
C611	C61	0.100700	0.482400	0.828510
H491	H49	0.100900	0.399700	0.827200
C621	C62	0.907600	0.529800	0.927600
H501	H50	0.898700	0.612100	0.926800
C631	C63	0.849200	0.465600	0.958240
H511	H51	0.801000	0.505900	0.978500
N131	N13	0.855800	0.349000	0.961550
C641	C64	0.157300	0.545200	0.797000
H521	H52	0.195400	0.504200	0.774100
N141	N14	0.161500	0.661700	0.796950
C651	C65	0.044000	0.660000	0.861620
H531	H53	0.004000	0.703300	0.883400
C661	C66	0.928900	0.297900	0.933710
H541	H54	0.939500	0.216100	0.936100
C671	C67	0.989800	0.355700	0.901830
H551	H55	0.039000	0.313000	0.882600
C681	C68	0.980900	0.473900	0.897190
C691	C69	0.103900	0.717100	0.828620
H561	H56	0.103900	0.799800	0.828500
C701	C70	0.042800	0.538500	0.862560
C711	C71	0.399300	0.017600	0.828510
H571	H57	0.399100	0.100300	0.827200
C721	C72	0.592400	0.970200	0.927600
H581	H58	0.601300	0.887900	0.926800
C731	C73	0.650800	0.034400	0.958240
H591	H59	0.699000	0.994100	0.978500
N151	N15	0.644200	0.151000	0.961550
C741	C74	0.342700	0.954800	0.797000
H601	H60	0.304600	0.995800	0.774100
N161	N16	0.338500	0.838300	0.796950
C751	C75	0.456000	0.840000	0.861620
H611	H61	0.496000	0.796700	0.883400
C761	C76	0.571100	0.202100	0.933710
H621	H62	0.560500	0.283900	0.936100
C771	C77	0.510200	0.144300	0.901830
H631	H63	0.461000	0.187000	0.882600
C781	C78	0.519100	0.026100	0.897190
C791	C79	0.396100	0.782900	0.828620
H641	H64	0.396100	0.700200	0.828500
C801	C80	0.457200	0.961500	0.862560
Cu11	Cu1	0.750000	0.250000	0.500000
Cu21	Cu2	0.750000	0.250000	0.000000
Cu31	Cu3	0.250000	0.750000	0.250000
Cu41	Cu4	0.250000	0.750000	0.750000
C811	C81	0.482400	0.100700	0.328510
H651	H65	0.399700	0.100900	0.327200
C821	C82	0.529800	0.907600	0.427600
H661	H66	0.612100	0.898700	0.426800
C831	C83	0.465600	0.849200	0.458240
H671	H67	0.505900	0.801000	0.478500
N171	N17	0.349000	0.855800	0.461550
C841	C84	0.545200	0.157300	0.297000
H681	H68	0.504200	0.195400	0.274100
N181	N18	0.661700	0.161500	0.296950
C851	C85	0.660000	0.044000	0.361620
H691	H69	0.703300	0.004000	0.383400
C861	C86	0.297900	0.928900	0.433710
H701	H70	0.216100	0.939500	0.436100
C871	C87	0.355700	0.989800	0.401830
H711	H71	0.313000	0.039000	0.382600
C881	C88	0.473900	0.980900	0.397190
C891	C89	0.717100	0.103900	0.328620
H721	H72	0.799800	0.103900	0.328500
C901	C90	0.538500	0.042800	0.362560
C911	C91	0.017600	0.399300	0.328510
H731	H73	0.100300	0.399100	0.327200
C921	C92	0.970200	0.592400	0.427600
H741	H74	0.887900	0.601300	0.426800
C931	C93	0.034400	0.650800	0.458240
H751	H75	0.994100	0.699000	0.478500
N191	N19	0.151000	0.644200	0.461550
C941	C94	0.954800	0.342700	0.297000
H761	H76	0.995800	0.304600	0.274100
N201	N20	0.838300	0.338500	0.296950
C951	C95	0.840000	0.456000	0.361620
H771	H77	0.796700	0.496000	0.383400
C961	C96	0.202100	0.571100	0.433710
H781	H78	0.283900	0.560500	0.436100
C971	C97	0.144300	0.510200	0.401830
H791	H79	0.187000	0.461000	0.382600
C981	C98	0.026100	0.519100	0.397190
C991	C99	0.782900	0.396100	0.328620
H801	H80	0.700200	0.396100	0.328500
C1001	C100	0.961500	0.457200	0.362560
C1011	C101	0.899300	0.517600	0.171490
H811	H81	0.899100	0.600300	0.172800
C1021	C102	0.092400	0.470200	0.072400
H821	H82	0.101300	0.387900	0.073200
C1031	C103	0.150800	0.534400	0.041760
H831	H83	0.199000	0.494100	0.021500
N211	N21	0.144200	0.651000	0.038450
C1041	C104	0.842700	0.454800	0.203000
H841	H84	0.804600	0.495800	0.225900
N221	N22	0.838500	0.338300	0.203050
C1051	C105	0.956000	0.340000	0.138380
H851	H85	0.996000	0.296700	0.116600
C1061	C106	0.071100	0.702100	0.066290
H861	H86	0.060500	0.783900	0.063900
C1071	C107	0.010200	0.644300	0.098170
H871	H87	0.961000	0.687000	0.117400
C1081	C108	0.019100	0.526100	0.102810
C1091	C109	0.896100	0.282900	0.171380
H881	H88	0.896100	0.200200	0.171500
C1101	C110	0.957200	0.461500	0.137440
C1111	C111	0.600700	0.982400	0.171490
H891	H89	0.600900	0.899700	0.172800
C1121	C112	0.407600	0.029800	0.072400
H901	H90	0.398700	0.112100	0.073200
C1131	C113	0.349200	0.965600	0.041760
H911	H91	0.301000	0.005900	0.021500
N231	N23	0.355800	0.849000	0.038450
C1141	C114	0.657300	0.045200	0.203000
H921	H92	0.695400	0.004200	0.225900
N241	N24	0.661500	0.161700	0.203050
C1151	C115	0.544000	0.160000	0.138380
H931	H93	0.504000	0.203300	0.116600
C1161	C116	0.428900	0.797900	0.066290
H941	H94	0.439500	0.716100	0.063900
C1171	C117	0.489800	0.855700	0.098170
H951	H95	0.539000	0.813000	0.117400
C1181	C118	0.480900	0.973900	0.102810
C1191	C119	0.603900	0.217100	0.171380
H961	H96	0.603900	0.299800	0.171500
C1201	C120	0.542800	0.038500	0.137440
C1211	C121	0.899300	0.982400	0.671490
H971	H97	0.899100	0.899700	0.672800
C1221	C122	0.092400	0.029800	0.572400
H981	H98	0.101300	0.112100	0.573200
C1231	C123	0.150800	0.965600	0.541760
H991	H99	0.199000	0.005900	0.521500
N251	N25	0.144200	0.849000	0.538450
C1241	C124	0.842700	0.045200	0.703000
H1001	H100	0.804600	0.004200	0.725900
N261	N26	0.838500	0.161700	0.703050
C1251	C125	0.956000	0.160000	0.638380
H1011	H101	0.996000	0.203300	0.616600
C1261	C126	0.071100	0.797900	0.566290
H1021	H102	0.060500	0.716100	0.563900
C1271	C127	0.010200	0.855700	0.598170
H1031	H103	0.961000	0.813000	0.617400
C1281	C128	0.019100	0.973900	0.602810
C1291	C129	0.896100	0.217100	0.671380
H1041	H104	0.896100	0.299800	0.671500
C1301	C130	0.957200	0.038500	0.637440
C1311	C131	0.600700	0.517600	0.671490
H1051	H105	0.600900	0.600300	0.672800
C1321	C132	0.407600	0.470200	0.572400
H1061	H106	0.398700	0.387900	0.573200
C1331	C133	0.349200	0.534400	0.541760
H1071	H107	0.301000	0.494100	0.521500
N271	N27	0.355800	0.651000	0.538450
C1341	C134	0.657300	0.454800	0.703000
H1081	H108	0.695400	0.495800	0.725900
N281	N28	0.661500	0.338300	0.703050
C1351	C135	0.544000	0.340000	0.638380
H1091	H109	0.504000	0.296700	0.616600
C1361	C136	0.428900	0.702100	0.566290
H1101	H110	0.439500	0.783900	0.563900
C1371	C137	0.489800	0.644300	0.598170
H1111	H111	0.539000	0.687000	0.617400
C1381	C138	0.480900	0.526100	0.602810
C1391	C139	0.603900	0.282900	0.671380
H1121	H112	0.603900	0.200200	0.671500
C1401	C140	0.542800	0.461500	0.637440
C1411	C141	0.482400	0.399300	0.828510
H1131	H113	0.399700	0.399100	0.827200
C1421	C142	0.529800	0.592400	0.927600
H1141	H114	0.612100	0.601300	0.926800
C1431	C143	0.465600	0.650800	0.958240
H1151	H115	0.505900	0.699000	0.978500
N291	N29	0.349000	0.644200	0.961550
C1441	C144	0.545200	0.342700	0.797000
H1161	H116	0.504200	0.304600	0.774100
N301	N30	0.661700	0.338500	0.796950
C1451	C145	0.660000	0.456000	0.861620
H1171	H117	0.703300	0.496000	0.883400
C1461	C146	0.297900	0.571100	0.933710
H1181	H118	0.216100	0.560500	0.936100
C1471	C147	0.355700	0.510200	0.901830
H1191	H119	0.313000	0.461000	0.882600
C1481	C148	0.473900	0.519100	0.897190
C1491	C149	0.717100	0.396100	0.828620
H1201	H120	0.799800	0.396100	0.828500
C1501	C150	0.538500	0.457200	0.862560
C1511	C151	0.017600	0.100700	0.828510
H1211	H121	0.100300	0.100900	0.827200
C1521	C152	0.970200	0.907600	0.927600
H1221	H122	0.887900	0.898700	0.926800
C1531	C153	0.034400	0.849200	0.958240
H1231	H123	0.994100	0.801000	0.978500
N311	N31	0.151000	0.855800	0.961550
C1541	C154	0.954800	0.157300	0.797000
H1241	H124	0.995800	0.195400	0.774100
N321	N32	0.838300	0.161500	0.796950
C1551	C155	0.840000	0.044000	0.861620
H1251	H125	0.796700	0.004000	0.883400
C1561	C156	0.202100	0.928900	0.933710
H1261	H126	0.283900	0.939500	0.936100
C1571	C157	0.144300	0.989800	0.901830
H1271	H127	0.187000	0.039000	0.882600
C1581	C158	0.026100	0.980900	0.897190
C1591	C159	0.782900	0.103900	0.828620
H1281	H128	0.700200	0.103900	0.828500
C1601	C160	0.961500	0.042800	0.862560
Cu51	Cu5	0.250000	0.750000	0.500000
Cu61	Cu6	0.250000	0.750000	0.000000
Cu71	Cu7	0.750000	0.250000	0.250000
Cu81	Cu8	0.750000	0.250000	0.750000
