data_YUZPOA_clean_PM
_symmetry_space_group_name_H-M	'P1'
_cell_length_a	31.420600
_cell_length_b	31.420600
_cell_length_c	44.823900
_cell_angle_alpha	90.000000
_cell_angle_beta	90.000000
_cell_angle_gamma	90.000000
_symmetry_Int_Tables_number 1

loop_
_symmetry_equiv_pos_as_xyz
'x,y,z'

loop_
_atom_site_label
_atom_site_type_symbol
_atom_site_fract_x
_atom_site_fract_y
_atom_site_fract_z
Zn11	Zn1	0.640120	0.694100	0.332380
Zn21	Zn2	0.605060	0.645920	0.373910
O11	O1	0.691690	0.686910	0.356590
O21	O2	0.661460	0.648570	0.392620
O31	O3	0.750400	0.582740	0.469130
O41	O4	0.820810	0.592690	0.468700
O51	O5	0.575810	0.607820	0.407880
H11	H1	0.553900	0.597100	0.401300
O61	O6	0.667000	0.734130	0.298610
H21	H2	0.686100	0.721300	0.290000
C11	C1	0.779210	0.627830	0.432420
C21	C2	0.783630	0.598730	0.459120
C31	C3	0.738990	0.635240	0.420380
H31	H3	0.714900	0.623900	0.429400
C41	C4	0.735460	0.659870	0.394670
C51	C5	0.692620	0.665940	0.380020
C61	C6	0.771340	0.676620	0.381170
H41	H4	0.768800	0.692700	0.363800
C71	C7	0.815210	0.644810	0.419270
H51	H5	0.841900	0.639800	0.427500
C81	C8	0.811130	0.669360	0.393650
N11	N1	0.847330	0.685140	0.378780
N21	N2	0.844690	0.709700	0.355760
N31	N3	0.883630	0.719400	0.346680
C91	C9	0.888510	0.672890	0.380960
H61	H6	0.899200	0.652200	0.393800
C101	C10	0.911470	0.696100	0.361240
C111	C11	0.971320	0.715970	0.329420
H71	H7	0.953000	0.733200	0.318500
C121	C12	0.956240	0.692770	0.353610
C131	C13	0.983840	0.667650	0.370220
H81	H8	0.973700	0.652500	0.386500
C141	C14	0.013970	0.713230	0.321690
C151	C15	0.041790	0.689340	0.338850
H91	H9	0.070700	0.689500	0.334500
C161	C16	0.054200	0.638660	0.380120
C171	C17	0.026510	0.665180	0.362510
C181	C18	0.009690	0.757340	0.274280
H101	H10	0.980300	0.759500	0.272200
C191	C19	0.030670	0.736800	0.296550
N41	N4	0.038790	0.773820	0.255920
N51	N5	0.070020	0.740100	0.290220
N61	N6	0.075590	0.761400	0.264620
C201	C20	0.097140	0.633380	0.377990
H111	H11	0.115100	0.647000	0.364600
N71	N7	0.108770	0.604790	0.398840
N81	N8	0.076490	0.597200	0.415070
N91	N9	0.042510	0.614600	0.401560
C211	C21	0.989700	0.824100	0.189480
C221	C22	0.993440	0.801530	0.216170
H121	H12	0.969600	0.789500	0.225100
C231	C23	0.069120	0.815170	0.216130
H131	H13	0.095600	0.812100	0.225100
C241	C24	0.033360	0.797480	0.229060
C251	C25	0.193470	0.544120	0.436270
C261	C26	0.153440	0.558800	0.428320
H141	H14	0.129200	0.548700	0.437900
C271	C27	0.150110	0.588800	0.405800
C281	C28	0.229400	0.558580	0.421650
H151	H15	0.256200	0.549000	0.427400
C291	C29	0.025460	0.842440	0.176420
H161	H16	0.022800	0.857900	0.158900
C301	C30	0.947430	0.827130	0.174330
C311	C31	0.225260	0.587490	0.398410
C321	C32	0.064960	0.837620	0.189540
C331	C33	0.104270	0.854630	0.174430
C341	C34	0.185560	0.602460	0.390170
H171	H17	0.182700	0.621400	0.374400
C351	C35	0.197430	0.510890	0.460240
C361	C36	0.264290	0.601500	0.381660
O71	O7	0.139490	0.847030	0.186760
O81	O8	0.916900	0.806690	0.185520
O91	O9	0.945410	0.849790	0.151220
O101	O10	0.164220	0.494000	0.469580
O111	O11	0.098500	0.874300	0.150620
O121	O12	0.234810	0.503350	0.469210
O131	O13	0.299570	0.590510	0.392090
O141	O14	0.258440	0.622790	0.358160
Zn31	Zn3	0.140120	0.194100	0.832380
Zn41	Zn4	0.105060	0.145920	0.873910
O151	O15	0.191690	0.186910	0.856590
O161	O16	0.161460	0.148570	0.892620
O171	O17	0.250400	0.082740	0.969130
O181	O18	0.320810	0.092690	0.968700
O191	O19	0.075810	0.107820	0.907880
H181	H18	0.053900	0.097100	0.901300
O201	O20	0.167000	0.234130	0.798610
H191	H19	0.186100	0.221300	0.790000
C371	C37	0.279210	0.127830	0.932420
C381	C38	0.283630	0.098730	0.959120
C391	C39	0.238990	0.135240	0.920380
H201	H20	0.214900	0.123900	0.929400
C401	C40	0.235460	0.159870	0.894670
C411	C41	0.192620	0.165940	0.880020
C421	C42	0.271340	0.176620	0.881170
H211	H21	0.268800	0.192700	0.863800
C431	C43	0.315210	0.144810	0.919270
H221	H22	0.341900	0.139800	0.927500
C441	C44	0.311130	0.169360	0.893650
N101	N10	0.347330	0.185140	0.878780
N111	N11	0.344690	0.209700	0.855760
N121	N12	0.383630	0.219400	0.846680
C451	C45	0.388510	0.172890	0.880960
H231	H23	0.399200	0.152200	0.893800
C461	C46	0.411470	0.196100	0.861240
C471	C47	0.471320	0.215970	0.829420
H241	H24	0.453000	0.233200	0.818500
C481	C48	0.456240	0.192770	0.853610
C491	C49	0.483840	0.167650	0.870220
H251	H25	0.473700	0.152500	0.886500
C501	C50	0.513970	0.213230	0.821690
C511	C51	0.541790	0.189340	0.838850
H261	H26	0.570700	0.189500	0.834500
C521	C52	0.554200	0.138660	0.880120
C531	C53	0.526510	0.165180	0.862510
C541	C54	0.509690	0.257340	0.774280
H271	H27	0.480300	0.259500	0.772200
C551	C55	0.530670	0.236800	0.796550
N131	N13	0.538790	0.273820	0.755920
N141	N14	0.570020	0.240100	0.790220
N151	N15	0.575590	0.261400	0.764620
C561	C56	0.597140	0.133380	0.877990
H281	H28	0.615100	0.147000	0.864600
N161	N16	0.608770	0.104790	0.898840
N171	N17	0.576490	0.097200	0.915070
N181	N18	0.542510	0.114600	0.901560
C571	C57	0.489700	0.324100	0.689480
C581	C58	0.493440	0.301530	0.716170
H291	H29	0.469600	0.289500	0.725100
C591	C59	0.569120	0.315170	0.716130
H301	H30	0.595600	0.312100	0.725100
C601	C60	0.533360	0.297480	0.729060
C611	C61	0.693470	0.044120	0.936270
C621	C62	0.653440	0.058800	0.928320
H311	H31	0.629200	0.048700	0.937900
C631	C63	0.650110	0.088800	0.905800
C641	C64	0.729400	0.058580	0.921650
H321	H32	0.756200	0.049000	0.927400
C651	C65	0.525460	0.342440	0.676420
H331	H33	0.522800	0.357900	0.658900
C661	C66	0.447430	0.327130	0.674330
C671	C67	0.725260	0.087490	0.898410
C681	C68	0.564960	0.337620	0.689540
C691	C69	0.604270	0.354630	0.674430
C701	C70	0.685560	0.102460	0.890170
H341	H34	0.682700	0.121400	0.874400
C711	C71	0.697430	0.010890	0.960240
C721	C72	0.764290	0.101500	0.881660
O211	O21	0.639490	0.347030	0.686760
O221	O22	0.416900	0.306690	0.685520
O231	O23	0.445410	0.349790	0.651220
O241	O24	0.664220	0.994000	0.969580
O251	O25	0.598500	0.374300	0.650620
O261	O26	0.734810	0.003350	0.969210
O271	O27	0.799570	0.090510	0.892090
O281	O28	0.758440	0.122790	0.858160
Zn51	Zn5	0.359880	0.305900	0.332380
Zn61	Zn6	0.394940	0.354080	0.373910
O291	O29	0.308310	0.313090	0.356590
O301	O30	0.338540	0.351430	0.392620
O311	O31	0.249600	0.417260	0.469130
O321	O32	0.179190	0.407310	0.468700
O331	O33	0.424190	0.392180	0.407880
H351	H35	0.446100	0.402900	0.401300
O341	O34	0.333000	0.265870	0.298610
H361	H36	0.313900	0.278700	0.290000
C731	C73	0.220790	0.372170	0.432420
C741	C74	0.216370	0.401270	0.459120
C751	C75	0.261010	0.364760	0.420380
H371	H37	0.285100	0.376100	0.429400
C761	C76	0.264540	0.340130	0.394670
C771	C77	0.307380	0.334060	0.380020
C781	C78	0.228660	0.323380	0.381170
H381	H38	0.231200	0.307300	0.363800
C791	C79	0.184790	0.355190	0.419270
H391	H39	0.158100	0.360200	0.427500
C801	C80	0.188870	0.330640	0.393650
N191	N19	0.152670	0.314860	0.378780
N201	N20	0.155310	0.290300	0.355760
N211	N21	0.116370	0.280600	0.346680
C811	C81	0.111490	0.327110	0.380960
H401	H40	0.100800	0.347800	0.393800
C821	C82	0.088530	0.303900	0.361240
C831	C83	0.028680	0.284030	0.329420
H411	H41	0.047000	0.266800	0.318500
C841	C84	0.043760	0.307230	0.353610
C851	C85	0.016160	0.332350	0.370220
H421	H42	0.026300	0.347500	0.386500
C861	C86	0.986030	0.286770	0.321690
C871	C87	0.958210	0.310660	0.338850
H431	H43	0.929300	0.310500	0.334500
C881	C88	0.945800	0.361340	0.380120
C891	C89	0.973490	0.334820	0.362510
C901	C90	0.990310	0.242660	0.274280
H441	H44	0.019700	0.240500	0.272200
C911	C91	0.969330	0.263200	0.296550
N221	N22	0.961210	0.226180	0.255920
N231	N23	0.929980	0.259900	0.290220
N241	N24	0.924410	0.238600	0.264620
C921	C92	0.902860	0.366620	0.377990
H451	H45	0.884900	0.353000	0.364600
N251	N25	0.891230	0.395210	0.398840
N261	N26	0.923510	0.402800	0.415070
N271	N27	0.957490	0.385400	0.401560
C931	C93	0.010300	0.175900	0.189480
C941	C94	0.006560	0.198470	0.216170
H461	H46	0.030400	0.210500	0.225100
C951	C95	0.930880	0.184830	0.216130
H471	H47	0.904400	0.187900	0.225100
C961	C96	0.966640	0.202520	0.229060
C971	C97	0.806530	0.455880	0.436270
C981	C98	0.846560	0.441200	0.428320
H481	H48	0.870800	0.451300	0.437900
C991	C99	0.849890	0.411200	0.405800
C1001	C100	0.770600	0.441420	0.421650
H491	H49	0.743800	0.451000	0.427400
C1011	C101	0.974540	0.157560	0.176420
H501	H50	0.977200	0.142100	0.158900
C1021	C102	0.052570	0.172870	0.174330
C1031	C103	0.774740	0.412510	0.398410
C1041	C104	0.935040	0.162380	0.189540
C1051	C105	0.895730	0.145370	0.174430
C1061	C106	0.814440	0.397540	0.390170
H511	H51	0.817300	0.378600	0.374400
C1071	C107	0.802570	0.489110	0.460240
C1081	C108	0.735710	0.398500	0.381660
O351	O35	0.860510	0.152970	0.186760
O361	O36	0.083100	0.193310	0.185520
O371	O37	0.054590	0.150210	0.151220
O381	O38	0.835780	0.506000	0.469580
O391	O39	0.901500	0.125700	0.150620
O401	O40	0.765190	0.496650	0.469210
O411	O41	0.700430	0.409490	0.392090
O421	O42	0.741560	0.377210	0.358160
Zn71	Zn7	0.859880	0.805900	0.832380
Zn81	Zn8	0.894940	0.854080	0.873910
O431	O43	0.808310	0.813090	0.856590
O441	O44	0.838540	0.851430	0.892620
O451	O45	0.749600	0.917260	0.969130
O461	O46	0.679190	0.907310	0.968700
O471	O47	0.924190	0.892180	0.907880
H521	H52	0.946100	0.902900	0.901300
O481	O48	0.833000	0.765870	0.798610
H531	H53	0.813900	0.778700	0.790000
C1091	C109	0.720790	0.872170	0.932420
C1101	C110	0.716370	0.901270	0.959120
C1111	C111	0.761010	0.864760	0.920380
H541	H54	0.785100	0.876100	0.929400
C1121	C112	0.764540	0.840130	0.894670
C1131	C113	0.807380	0.834060	0.880020
C1141	C114	0.728660	0.823380	0.881170
H551	H55	0.731200	0.807300	0.863800
C1151	C115	0.684790	0.855190	0.919270
H561	H56	0.658100	0.860200	0.927500
C1161	C116	0.688870	0.830640	0.893650
N281	N28	0.652670	0.814860	0.878780
N291	N29	0.655310	0.790300	0.855760
N301	N30	0.616370	0.780600	0.846680
C1171	C117	0.611490	0.827110	0.880960
H571	H57	0.600800	0.847800	0.893800
C1181	C118	0.588530	0.803900	0.861240
C1191	C119	0.528680	0.784030	0.829420
H581	H58	0.547000	0.766800	0.818500
C1201	C120	0.543760	0.807230	0.853610
C1211	C121	0.516160	0.832350	0.870220
H591	H59	0.526300	0.847500	0.886500
C1221	C122	0.486030	0.786770	0.821690
C1231	C123	0.458210	0.810660	0.838850
H601	H60	0.429300	0.810500	0.834500
C1241	C124	0.445800	0.861340	0.880120
C1251	C125	0.473490	0.834820	0.862510
C1261	C126	0.490310	0.742660	0.774280
H611	H61	0.519700	0.740500	0.772200
C1271	C127	0.469330	0.763200	0.796550
N311	N31	0.461210	0.726180	0.755920
N321	N32	0.429980	0.759900	0.790220
N331	N33	0.424410	0.738600	0.764620
C1281	C128	0.402860	0.866620	0.877990
H621	H62	0.384900	0.853000	0.864600
N341	N34	0.391230	0.895210	0.898840
N351	N35	0.423510	0.902800	0.915070
N361	N36	0.457490	0.885400	0.901560
C1291	C129	0.510300	0.675900	0.689480
C1301	C130	0.506560	0.698470	0.716170
H631	H63	0.530400	0.710500	0.725100
C1311	C131	0.430880	0.684830	0.716130
H641	H64	0.404400	0.687900	0.725100
C1321	C132	0.466640	0.702520	0.729060
C1331	C133	0.306530	0.955880	0.936270
C1341	C134	0.346560	0.941200	0.928320
H651	H65	0.370800	0.951300	0.937900
C1351	C135	0.349890	0.911200	0.905800
C1361	C136	0.270600	0.941420	0.921650
H661	H66	0.243800	0.951000	0.927400
C1371	C137	0.474540	0.657560	0.676420
H671	H67	0.477200	0.642100	0.658900
C1381	C138	0.552570	0.672870	0.674330
C1391	C139	0.274740	0.912510	0.898410
C1401	C140	0.435040	0.662380	0.689540
C1411	C141	0.395730	0.645370	0.674430
C1421	C142	0.314440	0.897540	0.890170
H681	H68	0.317300	0.878600	0.874400
C1431	C143	0.302570	0.989110	0.960240
C1441	C144	0.235710	0.898500	0.881660
O491	O49	0.360510	0.652970	0.686760
O501	O50	0.583100	0.693310	0.685520
O511	O51	0.554590	0.650210	0.651220
O521	O52	0.335780	0.006000	0.969580
O531	O53	0.401500	0.625700	0.650620
O541	O54	0.265190	0.996650	0.969210
O551	O55	0.200430	0.909490	0.892090
O561	O56	0.241560	0.877210	0.858160
Zn91	Zn9	0.305900	0.640120	0.332380
Zn101	Zn10	0.354080	0.605060	0.373910
O571	O57	0.313090	0.691690	0.356590
O581	O58	0.351430	0.661460	0.392620
O591	O59	0.417260	0.750400	0.469130
O601	O60	0.407310	0.820810	0.468700
O611	O61	0.392180	0.575810	0.407880
H691	H69	0.402900	0.553900	0.401300
O621	O62	0.265870	0.667000	0.298610
H701	H70	0.278700	0.686100	0.290000
C1451	C145	0.372170	0.779210	0.432420
C1461	C146	0.401270	0.783630	0.459120
C1471	C147	0.364760	0.738990	0.420380
H711	H71	0.376100	0.714900	0.429400
C1481	C148	0.340130	0.735460	0.394670
C1491	C149	0.334060	0.692620	0.380020
C1501	C150	0.323380	0.771340	0.381170
H721	H72	0.307300	0.768800	0.363800
C1511	C151	0.355190	0.815210	0.419270
H731	H73	0.360200	0.841900	0.427500
C1521	C152	0.330640	0.811130	0.393650
N371	N37	0.314860	0.847330	0.378780
N381	N38	0.290300	0.844690	0.355760
N391	N39	0.280600	0.883630	0.346680
C1531	C153	0.327110	0.888510	0.380960
H741	H74	0.347800	0.899200	0.393800
C1541	C154	0.303900	0.911470	0.361240
C1551	C155	0.284030	0.971320	0.329420
H751	H75	0.266800	0.953000	0.318500
C1561	C156	0.307230	0.956240	0.353610
C1571	C157	0.332350	0.983840	0.370220
H761	H76	0.347500	0.973700	0.386500
C1581	C158	0.286770	0.013970	0.321690
C1591	C159	0.310660	0.041790	0.338850
H771	H77	0.310500	0.070700	0.334500
C1601	C160	0.361340	0.054200	0.380120
C1611	C161	0.334820	0.026510	0.362510
C1621	C162	0.242660	0.009690	0.274280
H781	H78	0.240500	0.980300	0.272200
C1631	C163	0.263200	0.030670	0.296550
N401	N40	0.226180	0.038790	0.255920
N411	N41	0.259900	0.070020	0.290220
N421	N42	0.238600	0.075590	0.264620
C1641	C164	0.366620	0.097140	0.377990
H791	H79	0.353000	0.115100	0.364600
N431	N43	0.395210	0.108770	0.398840
N441	N44	0.402800	0.076490	0.415070
N451	N45	0.385400	0.042510	0.401560
C1651	C165	0.175900	0.989700	0.189480
C1661	C166	0.198470	0.993440	0.216170
H801	H80	0.210500	0.969600	0.225100
C1671	C167	0.184830	0.069120	0.216130
H811	H81	0.187900	0.095600	0.225100
C1681	C168	0.202520	0.033360	0.229060
C1691	C169	0.455880	0.193470	0.436270
C1701	C170	0.441200	0.153440	0.428320
H821	H82	0.451300	0.129200	0.437900
C1711	C171	0.411200	0.150110	0.405800
C1721	C172	0.441420	0.229400	0.421650
H831	H83	0.451000	0.256200	0.427400
C1731	C173	0.157560	0.025460	0.176420
H841	H84	0.142100	0.022800	0.158900
C1741	C174	0.172870	0.947430	0.174330
C1751	C175	0.412510	0.225260	0.398410
C1761	C176	0.162380	0.064960	0.189540
C1771	C177	0.145370	0.104270	0.174430
C1781	C178	0.397540	0.185560	0.390170
H851	H85	0.378600	0.182700	0.374400
C1791	C179	0.489110	0.197430	0.460240
C1801	C180	0.398500	0.264290	0.381660
O631	O63	0.152970	0.139490	0.186760
O641	O64	0.193310	0.916900	0.185520
O651	O65	0.150210	0.945410	0.151220
O661	O66	0.506000	0.164220	0.469580
O671	O67	0.125700	0.098500	0.150620
O681	O68	0.496650	0.234810	0.469210
O691	O69	0.409490	0.299570	0.392090
O701	O70	0.377210	0.258440	0.358160
Zn111	Zn11	0.805900	0.140120	0.832380
Zn121	Zn12	0.854080	0.105060	0.873910
O711	O71	0.813090	0.191690	0.856590
O721	O72	0.851430	0.161460	0.892620
O731	O73	0.917260	0.250400	0.969130
O741	O74	0.907310	0.320810	0.968700
O751	O75	0.892180	0.075810	0.907880
H861	H86	0.902900	0.053900	0.901300
O761	O76	0.765870	0.167000	0.798610
H871	H87	0.778700	0.186100	0.790000
C1811	C181	0.872170	0.279210	0.932420
C1821	C182	0.901270	0.283630	0.959120
C1831	C183	0.864760	0.238990	0.920380
H881	H88	0.876100	0.214900	0.929400
C1841	C184	0.840130	0.235460	0.894670
C1851	C185	0.834060	0.192620	0.880020
C1861	C186	0.823380	0.271340	0.881170
H891	H89	0.807300	0.268800	0.863800
C1871	C187	0.855190	0.315210	0.919270
H901	H90	0.860200	0.341900	0.927500
C1881	C188	0.830640	0.311130	0.893650
N461	N46	0.814860	0.347330	0.878780
N471	N47	0.790300	0.344690	0.855760
N481	N48	0.780600	0.383630	0.846680
C1891	C189	0.827110	0.388510	0.880960
H911	H91	0.847800	0.399200	0.893800
C1901	C190	0.803900	0.411470	0.861240
C1911	C191	0.784030	0.471320	0.829420
H921	H92	0.766800	0.453000	0.818500
C1921	C192	0.807230	0.456240	0.853610
C1931	C193	0.832350	0.483840	0.870220
H931	H93	0.847500	0.473700	0.886500
C1941	C194	0.786770	0.513970	0.821690
C1951	C195	0.810660	0.541790	0.838850
H941	H94	0.810500	0.570700	0.834500
C1961	C196	0.861340	0.554200	0.880120
C1971	C197	0.834820	0.526510	0.862510
C1981	C198	0.742660	0.509690	0.774280
H951	H95	0.740500	0.480300	0.772200
C1991	C199	0.763200	0.530670	0.796550
N491	N49	0.726180	0.538790	0.755920
N501	N50	0.759900	0.570020	0.790220
N511	N51	0.738600	0.575590	0.764620
C2001	C200	0.866620	0.597140	0.877990
H961	H96	0.853000	0.615100	0.864600
N521	N52	0.895210	0.608770	0.898840
N531	N53	0.902800	0.576490	0.915070
N541	N54	0.885400	0.542510	0.901560
C2011	C201	0.675900	0.489700	0.689480
C2021	C202	0.698470	0.493440	0.716170
H971	H97	0.710500	0.469600	0.725100
C2031	C203	0.684830	0.569120	0.716130
H981	H98	0.687900	0.595600	0.725100
C2041	C204	0.702520	0.533360	0.729060
C2051	C205	0.955880	0.693470	0.936270
C2061	C206	0.941200	0.653440	0.928320
H991	H99	0.951300	0.629200	0.937900
C2071	C207	0.911200	0.650110	0.905800
C2081	C208	0.941420	0.729400	0.921650
H1001	H100	0.951000	0.756200	0.927400
C2091	C209	0.657560	0.525460	0.676420
H1011	H101	0.642100	0.522800	0.658900
C2101	C210	0.672870	0.447430	0.674330
C2111	C211	0.912510	0.725260	0.898410
C2121	C212	0.662380	0.564960	0.689540
C2131	C213	0.645370	0.604270	0.674430
C2141	C214	0.897540	0.685560	0.890170
H1021	H102	0.878600	0.682700	0.874400
C2151	C215	0.989110	0.697430	0.960240
C2161	C216	0.898500	0.764290	0.881660
O771	O77	0.652970	0.639490	0.686760
O781	O78	0.693310	0.416900	0.685520
O791	O79	0.650210	0.445410	0.651220
O801	O80	0.006000	0.664220	0.969580
O811	O81	0.625700	0.598500	0.650620
O821	O82	0.996650	0.734810	0.969210
O831	O83	0.909490	0.799570	0.892090
O841	O84	0.877210	0.758440	0.858160
Zn131	Zn13	0.694100	0.359880	0.332380
Zn141	Zn14	0.645920	0.394940	0.373910
O851	O85	0.686910	0.308310	0.356590
O861	O86	0.648570	0.338540	0.392620
O871	O87	0.582740	0.249600	0.469130
O881	O88	0.592690	0.179190	0.468700
O891	O89	0.607820	0.424190	0.407880
H1031	H103	0.597100	0.446100	0.401300
O901	O90	0.734130	0.333000	0.298610
H1041	H104	0.721300	0.313900	0.290000
C2171	C217	0.627830	0.220790	0.432420
C2181	C218	0.598730	0.216370	0.459120
C2191	C219	0.635240	0.261010	0.420380
H1051	H105	0.623900	0.285100	0.429400
C2201	C220	0.659870	0.264540	0.394670
C2211	C221	0.665940	0.307380	0.380020
C2221	C222	0.676620	0.228660	0.381170
H1061	H106	0.692700	0.231200	0.363800
C2231	C223	0.644810	0.184790	0.419270
H1071	H107	0.639800	0.158100	0.427500
C2241	C224	0.669360	0.188870	0.393650
N551	N55	0.685140	0.152670	0.378780
N561	N56	0.709700	0.155310	0.355760
N571	N57	0.719400	0.116370	0.346680
C2251	C225	0.672890	0.111490	0.380960
H1081	H108	0.652200	0.100800	0.393800
C2261	C226	0.696100	0.088530	0.361240
C2271	C227	0.715970	0.028680	0.329420
H1091	H109	0.733200	0.047000	0.318500
C2281	C228	0.692770	0.043760	0.353610
C2291	C229	0.667650	0.016160	0.370220
H1101	H110	0.652500	0.026300	0.386500
C2301	C230	0.713230	0.986030	0.321690
C2311	C231	0.689340	0.958210	0.338850
H1111	H111	0.689500	0.929300	0.334500
C2321	C232	0.638660	0.945800	0.380120
C2331	C233	0.665180	0.973490	0.362510
C2341	C234	0.757340	0.990310	0.274280
H1121	H112	0.759500	0.019700	0.272200
C2351	C235	0.736800	0.969330	0.296550
N581	N58	0.773820	0.961210	0.255920
N591	N59	0.740100	0.929980	0.290220
N601	N60	0.761400	0.924410	0.264620
C2361	C236	0.633380	0.902860	0.377990
H1131	H113	0.647000	0.884900	0.364600
N611	N61	0.604790	0.891230	0.398840
N621	N62	0.597200	0.923510	0.415070
N631	N63	0.614600	0.957490	0.401560
C2371	C237	0.824100	0.010300	0.189480
C2381	C238	0.801530	0.006560	0.216170
H1141	H114	0.789500	0.030400	0.225100
C2391	C239	0.815170	0.930880	0.216130
H1151	H115	0.812100	0.904400	0.225100
C2401	C240	0.797480	0.966640	0.229060
C2411	C241	0.544120	0.806530	0.436270
C2421	C242	0.558800	0.846560	0.428320
H1161	H116	0.548700	0.870800	0.437900
C2431	C243	0.588800	0.849890	0.405800
C2441	C244	0.558580	0.770600	0.421650
H1171	H117	0.549000	0.743800	0.427400
C2451	C245	0.842440	0.974540	0.176420
H1181	H118	0.857900	0.977200	0.158900
C2461	C246	0.827130	0.052570	0.174330
C2471	C247	0.587490	0.774740	0.398410
C2481	C248	0.837620	0.935040	0.189540
C2491	C249	0.854630	0.895730	0.174430
C2501	C250	0.602460	0.814440	0.390170
H1191	H119	0.621400	0.817300	0.374400
C2511	C251	0.510890	0.802570	0.460240
C2521	C252	0.601500	0.735710	0.381660
O911	O91	0.847030	0.860510	0.186760
O921	O92	0.806690	0.083100	0.185520
O931	O93	0.849790	0.054590	0.151220
O941	O94	0.494000	0.835780	0.469580
O951	O95	0.874300	0.901500	0.150620
O961	O96	0.503350	0.765190	0.469210
O971	O97	0.590510	0.700430	0.392090
O981	O98	0.622790	0.741560	0.358160
Zn151	Zn15	0.194100	0.859880	0.832380
Zn161	Zn16	0.145920	0.894940	0.873910
O991	O99	0.186910	0.808310	0.856590
O1001	O100	0.148570	0.838540	0.892620
O1011	O101	0.082740	0.749600	0.969130
O1021	O102	0.092690	0.679190	0.968700
O1031	O103	0.107820	0.924190	0.907880
H1201	H120	0.097100	0.946100	0.901300
O1041	O104	0.234130	0.833000	0.798610
H1211	H121	0.221300	0.813900	0.790000
C2531	C253	0.127830	0.720790	0.932420
C2541	C254	0.098730	0.716370	0.959120
C2551	C255	0.135240	0.761010	0.920380
H1221	H122	0.123900	0.785100	0.929400
C2561	C256	0.159870	0.764540	0.894670
C2571	C257	0.165940	0.807380	0.880020
C2581	C258	0.176620	0.728660	0.881170
H1231	H123	0.192700	0.731200	0.863800
C2591	C259	0.144810	0.684790	0.919270
H1241	H124	0.139800	0.658100	0.927500
C2601	C260	0.169360	0.688870	0.893650
N641	N64	0.185140	0.652670	0.878780
N651	N65	0.209700	0.655310	0.855760
N661	N66	0.219400	0.616370	0.846680
C2611	C261	0.172890	0.611490	0.880960
H1251	H125	0.152200	0.600800	0.893800
C2621	C262	0.196100	0.588530	0.861240
C2631	C263	0.215970	0.528680	0.829420
H1261	H126	0.233200	0.547000	0.818500
C2641	C264	0.192770	0.543760	0.853610
C2651	C265	0.167650	0.516160	0.870220
H1271	H127	0.152500	0.526300	0.886500
C2661	C266	0.213230	0.486030	0.821690
C2671	C267	0.189340	0.458210	0.838850
H1281	H128	0.189500	0.429300	0.834500
C2681	C268	0.138660	0.445800	0.880120
C2691	C269	0.165180	0.473490	0.862510
C2701	C270	0.257340	0.490310	0.774280
H1291	H129	0.259500	0.519700	0.772200
C2711	C271	0.236800	0.469330	0.796550
N671	N67	0.273820	0.461210	0.755920
N681	N68	0.240100	0.429980	0.790220
N691	N69	0.261400	0.424410	0.764620
C2721	C272	0.133380	0.402860	0.877990
H1301	H130	0.147000	0.384900	0.864600
N701	N70	0.104790	0.391230	0.898840
N711	N71	0.097200	0.423510	0.915070
N721	N72	0.114600	0.457490	0.901560
C2731	C273	0.324100	0.510300	0.689480
C2741	C274	0.301530	0.506560	0.716170
H1311	H131	0.289500	0.530400	0.725100
C2751	C275	0.315170	0.430880	0.716130
H1321	H132	0.312100	0.404400	0.725100
C2761	C276	0.297480	0.466640	0.729060
C2771	C277	0.044120	0.306530	0.936270
C2781	C278	0.058800	0.346560	0.928320
H1331	H133	0.048700	0.370800	0.937900
C2791	C279	0.088800	0.349890	0.905800
C2801	C280	0.058580	0.270600	0.921650
H1341	H134	0.049000	0.243800	0.927400
C2811	C281	0.342440	0.474540	0.676420
H1351	H135	0.357900	0.477200	0.658900
C2821	C282	0.327130	0.552570	0.674330
C2831	C283	0.087490	0.274740	0.898410
C2841	C284	0.337620	0.435040	0.689540
C2851	C285	0.354630	0.395730	0.674430
C2861	C286	0.102460	0.314440	0.890170
H1361	H136	0.121400	0.317300	0.874400
C2871	C287	0.010890	0.302570	0.960240
C2881	C288	0.101500	0.235710	0.881660
O1051	O105	0.347030	0.360510	0.686760
O1061	O106	0.306690	0.583100	0.685520
O1071	O107	0.349790	0.554590	0.651220
O1081	O108	0.994000	0.335780	0.969580
O1091	O109	0.374300	0.401500	0.650620
O1101	O110	0.003350	0.265190	0.969210
O1111	O111	0.090510	0.200430	0.892090
O1121	O112	0.122790	0.241560	0.858160
Zn171	Zn17	0.359880	0.305900	0.667620
Zn181	Zn18	0.394940	0.354080	0.626090
O1131	O113	0.308310	0.313090	0.643410
O1141	O114	0.338540	0.351430	0.607380
O1151	O115	0.249600	0.417260	0.530870
O1161	O116	0.179190	0.407310	0.531300
O1171	O117	0.424190	0.392180	0.592120
H1371	H137	0.446100	0.402900	0.598700
O1181	O118	0.333000	0.265870	0.701390
H1381	H138	0.313900	0.278700	0.710000
C2891	C289	0.220790	0.372170	0.567580
C2901	C290	0.216370	0.401270	0.540880
C2911	C291	0.261010	0.364760	0.579620
H1391	H139	0.285100	0.376100	0.570600
C2921	C292	0.264540	0.340130	0.605330
C2931	C293	0.307380	0.334060	0.619980
C2941	C294	0.228660	0.323380	0.618830
H1401	H140	0.231200	0.307300	0.636200
C2951	C295	0.184790	0.355190	0.580730
H1411	H141	0.158100	0.360200	0.572500
C2961	C296	0.188870	0.330640	0.606350
N731	N73	0.152670	0.314860	0.621220
N741	N74	0.155310	0.290300	0.644240
N751	N75	0.116370	0.280600	0.653320
C2971	C297	0.111490	0.327110	0.619040
H1421	H142	0.100800	0.347800	0.606200
C2981	C298	0.088530	0.303900	0.638760
C2991	C299	0.028680	0.284030	0.670580
H1431	H143	0.047000	0.266800	0.681500
C3001	C300	0.043760	0.307230	0.646390
C3011	C301	0.016160	0.332350	0.629780
H1441	H144	0.026300	0.347500	0.613500
C3021	C302	0.986030	0.286770	0.678310
C3031	C303	0.958210	0.310660	0.661150
H1451	H145	0.929300	0.310500	0.665500
C3041	C304	0.945800	0.361340	0.619880
C3051	C305	0.973490	0.334820	0.637490
C3061	C306	0.990310	0.242660	0.725720
H1461	H146	0.019700	0.240500	0.727800
C3071	C307	0.969330	0.263200	0.703450
N761	N76	0.961210	0.226180	0.744080
N771	N77	0.929980	0.259900	0.709780
N781	N78	0.924410	0.238600	0.735380
C3081	C308	0.902860	0.366620	0.622010
H1471	H147	0.884900	0.353000	0.635400
N791	N79	0.891230	0.395210	0.601160
N801	N80	0.923510	0.402800	0.584930
N811	N81	0.957490	0.385400	0.598440
C3091	C309	0.010300	0.175900	0.810520
C3101	C310	0.006560	0.198470	0.783830
H1481	H148	0.030400	0.210500	0.774900
C3111	C311	0.930880	0.184830	0.783870
H1491	H149	0.904400	0.187900	0.774900
C3121	C312	0.966640	0.202520	0.770940
C3131	C313	0.806530	0.455880	0.563730
C3141	C314	0.846560	0.441200	0.571680
H1501	H150	0.870800	0.451300	0.562100
C3151	C315	0.849890	0.411200	0.594200
C3161	C316	0.770600	0.441420	0.578350
H1511	H151	0.743800	0.451000	0.572600
C3171	C317	0.974540	0.157560	0.823580
H1521	H152	0.977200	0.142100	0.841100
C3181	C318	0.052570	0.172870	0.825670
C3191	C319	0.774740	0.412510	0.601590
C3201	C320	0.935040	0.162380	0.810460
C3211	C321	0.895730	0.145370	0.825570
C3221	C322	0.814440	0.397540	0.609830
H1531	H153	0.817300	0.378600	0.625600
C3231	C323	0.802570	0.489110	0.539760
C3241	C324	0.735710	0.398500	0.618340
O1191	O119	0.860510	0.152970	0.813240
O1201	O120	0.083100	0.193310	0.814480
O1211	O121	0.054590	0.150210	0.848780
O1221	O122	0.835780	0.506000	0.530420
O1231	O123	0.901500	0.125700	0.849380
O1241	O124	0.765190	0.496650	0.530790
O1251	O125	0.700430	0.409490	0.607910
O1261	O126	0.741560	0.377210	0.641840
Zn191	Zn19	0.859880	0.805900	0.167620
Zn201	Zn20	0.894940	0.854080	0.126090
O1271	O127	0.808310	0.813090	0.143410
O1281	O128	0.838540	0.851430	0.107380
O1291	O129	0.749600	0.917260	0.030870
O1301	O130	0.679190	0.907310	0.031300
O1311	O131	0.924190	0.892180	0.092120
H1541	H154	0.946100	0.902900	0.098700
O1321	O132	0.833000	0.765870	0.201390
H1551	H155	0.813900	0.778700	0.210000
C3251	C325	0.720790	0.872170	0.067580
C3261	C326	0.716370	0.901270	0.040880
C3271	C327	0.761010	0.864760	0.079620
H1561	H156	0.785100	0.876100	0.070600
C3281	C328	0.764540	0.840130	0.105330
C3291	C329	0.807380	0.834060	0.119980
C3301	C330	0.728660	0.823380	0.118830
H1571	H157	0.731200	0.807300	0.136200
C3311	C331	0.684790	0.855190	0.080730
H1581	H158	0.658100	0.860200	0.072500
C3321	C332	0.688870	0.830640	0.106350
N821	N82	0.652670	0.814860	0.121220
N831	N83	0.655310	0.790300	0.144240
N841	N84	0.616370	0.780600	0.153320
C3331	C333	0.611490	0.827110	0.119040
H1591	H159	0.600800	0.847800	0.106200
C3341	C334	0.588530	0.803900	0.138760
C3351	C335	0.528680	0.784030	0.170580
H1601	H160	0.547000	0.766800	0.181500
C3361	C336	0.543760	0.807230	0.146390
C3371	C337	0.516160	0.832350	0.129780
H1611	H161	0.526300	0.847500	0.113500
C3381	C338	0.486030	0.786770	0.178310
C3391	C339	0.458210	0.810660	0.161150
H1621	H162	0.429300	0.810500	0.165500
C3401	C340	0.445800	0.861340	0.119880
C3411	C341	0.473490	0.834820	0.137490
C3421	C342	0.490310	0.742660	0.225720
H1631	H163	0.519700	0.740500	0.227800
C3431	C343	0.469330	0.763200	0.203450
N851	N85	0.461210	0.726180	0.244080
N861	N86	0.429980	0.759900	0.209780
N871	N87	0.424410	0.738600	0.235380
C3441	C344	0.402860	0.866620	0.122010
H1641	H164	0.384900	0.853000	0.135400
N881	N88	0.391230	0.895210	0.101160
N891	N89	0.423510	0.902800	0.084930
N901	N90	0.457490	0.885400	0.098440
C3451	C345	0.510300	0.675900	0.310520
C3461	C346	0.506560	0.698470	0.283830
H1651	H165	0.530400	0.710500	0.274900
C3471	C347	0.430880	0.684830	0.283870
H1661	H166	0.404400	0.687900	0.274900
C3481	C348	0.466640	0.702520	0.270940
C3491	C349	0.306530	0.955880	0.063730
C3501	C350	0.346560	0.941200	0.071680
H1671	H167	0.370800	0.951300	0.062100
C3511	C351	0.349890	0.911200	0.094200
C3521	C352	0.270600	0.941420	0.078350
H1681	H168	0.243800	0.951000	0.072600
C3531	C353	0.474540	0.657560	0.323580
H1691	H169	0.477200	0.642100	0.341100
C3541	C354	0.552570	0.672870	0.325670
C3551	C355	0.274740	0.912510	0.101590
C3561	C356	0.435040	0.662380	0.310460
C3571	C357	0.395730	0.645370	0.325570
C3581	C358	0.314440	0.897540	0.109830
H1701	H170	0.317300	0.878600	0.125600
C3591	C359	0.302570	0.989110	0.039760
C3601	C360	0.235710	0.898500	0.118340
O1331	O133	0.360510	0.652970	0.313240
O1341	O134	0.583100	0.693310	0.314480
O1351	O135	0.554590	0.650210	0.348780
O1361	O136	0.335780	0.006000	0.030420
O1371	O137	0.401500	0.625700	0.349380
O1381	O138	0.265190	0.996650	0.030790
O1391	O139	0.200430	0.909490	0.107910
O1401	O140	0.241560	0.877210	0.141840
Zn211	Zn21	0.640120	0.694100	0.667620
Zn221	Zn22	0.605060	0.645920	0.626090
O1411	O141	0.691690	0.686910	0.643410
O1421	O142	0.661460	0.648570	0.607380
O1431	O143	0.750400	0.582740	0.530870
O1441	O144	0.820810	0.592690	0.531300
O1451	O145	0.575810	0.607820	0.592120
H1711	H171	0.553900	0.597100	0.598700
O1461	O146	0.667000	0.734130	0.701390
H1721	H172	0.686100	0.721300	0.710000
C3611	C361	0.779210	0.627830	0.567580
C3621	C362	0.783630	0.598730	0.540880
C3631	C363	0.738990	0.635240	0.579620
H1731	H173	0.714900	0.623900	0.570600
C3641	C364	0.735460	0.659870	0.605330
C3651	C365	0.692620	0.665940	0.619980
C3661	C366	0.771340	0.676620	0.618830
H1741	H174	0.768800	0.692700	0.636200
C3671	C367	0.815210	0.644810	0.580730
H1751	H175	0.841900	0.639800	0.572500
C3681	C368	0.811130	0.669360	0.606350
N911	N91	0.847330	0.685140	0.621220
N921	N92	0.844690	0.709700	0.644240
N931	N93	0.883630	0.719400	0.653320
C3691	C369	0.888510	0.672890	0.619040
H1761	H176	0.899200	0.652200	0.606200
C3701	C370	0.911470	0.696100	0.638760
C3711	C371	0.971320	0.715970	0.670580
H1771	H177	0.953000	0.733200	0.681500
C3721	C372	0.956240	0.692770	0.646390
C3731	C373	0.983840	0.667650	0.629780
H1781	H178	0.973700	0.652500	0.613500
C3741	C374	0.013970	0.713230	0.678310
C3751	C375	0.041790	0.689340	0.661150
H1791	H179	0.070700	0.689500	0.665500
C3761	C376	0.054200	0.638660	0.619880
C3771	C377	0.026510	0.665180	0.637490
C3781	C378	0.009690	0.757340	0.725720
H1801	H180	0.980300	0.759500	0.727800
C3791	C379	0.030670	0.736800	0.703450
N941	N94	0.038790	0.773820	0.744080
N951	N95	0.070020	0.740100	0.709780
N961	N96	0.075590	0.761400	0.735380
C3801	C380	0.097140	0.633380	0.622010
H1811	H181	0.115100	0.647000	0.635400
N971	N97	0.108770	0.604790	0.601160
N981	N98	0.076490	0.597200	0.584930
N991	N99	0.042510	0.614600	0.598440
C3811	C381	0.989700	0.824100	0.810520
C3821	C382	0.993440	0.801530	0.783830
H1821	H182	0.969600	0.789500	0.774900
C3831	C383	0.069120	0.815170	0.783870
H1831	H183	0.095600	0.812100	0.774900
C3841	C384	0.033360	0.797480	0.770940
C3851	C385	0.193470	0.544120	0.563730
C3861	C386	0.153440	0.558800	0.571680
H1841	H184	0.129200	0.548700	0.562100
C3871	C387	0.150110	0.588800	0.594200
C3881	C388	0.229400	0.558580	0.578350
H1851	H185	0.256200	0.549000	0.572600
C3891	C389	0.025460	0.842440	0.823580
H1861	H186	0.022800	0.857900	0.841100
C3901	C390	0.947430	0.827130	0.825670
C3911	C391	0.225260	0.587490	0.601590
C3921	C392	0.064960	0.837620	0.810460
C3931	C393	0.104270	0.854630	0.825570
C3941	C394	0.185560	0.602460	0.609830
H1871	H187	0.182700	0.621400	0.625600
C3951	C395	0.197430	0.510890	0.539760
C3961	C396	0.264290	0.601500	0.618340
O1471	O147	0.139490	0.847030	0.813240
O1481	O148	0.916900	0.806690	0.814480
O1491	O149	0.945410	0.849790	0.848780
O1501	O150	0.164220	0.494000	0.530420
O1511	O151	0.098500	0.874300	0.849380
O1521	O152	0.234810	0.503350	0.530790
O1531	O153	0.299570	0.590510	0.607910
O1541	O154	0.258440	0.622790	0.641840
Zn231	Zn23	0.140120	0.194100	0.167620
Zn241	Zn24	0.105060	0.145920	0.126090
O1551	O155	0.191690	0.186910	0.143410
O1561	O156	0.161460	0.148570	0.107380
O1571	O157	0.250400	0.082740	0.030870
O1581	O158	0.320810	0.092690	0.031300
O1591	O159	0.075810	0.107820	0.092120
H1881	H188	0.053900	0.097100	0.098700
O1601	O160	0.167000	0.234130	0.201390
H1891	H189	0.186100	0.221300	0.210000
C3971	C397	0.279210	0.127830	0.067580
C3981	C398	0.283630	0.098730	0.040880
C3991	C399	0.238990	0.135240	0.079620
H1901	H190	0.214900	0.123900	0.070600
C4001	C400	0.235460	0.159870	0.105330
C4011	C401	0.192620	0.165940	0.119980
C4021	C402	0.271340	0.176620	0.118830
H1911	H191	0.268800	0.192700	0.136200
C4031	C403	0.315210	0.144810	0.080730
H1921	H192	0.341900	0.139800	0.072500
C4041	C404	0.311130	0.169360	0.106350
N1001	N100	0.347330	0.185140	0.121220
N1011	N101	0.344690	0.209700	0.144240
N1021	N102	0.383630	0.219400	0.153320
C4051	C405	0.388510	0.172890	0.119040
H1931	H193	0.399200	0.152200	0.106200
C4061	C406	0.411470	0.196100	0.138760
C4071	C407	0.471320	0.215970	0.170580
H1941	H194	0.453000	0.233200	0.181500
C4081	C408	0.456240	0.192770	0.146390
C4091	C409	0.483840	0.167650	0.129780
H1951	H195	0.473700	0.152500	0.113500
C4101	C410	0.513970	0.213230	0.178310
C4111	C411	0.541790	0.189340	0.161150
H1961	H196	0.570700	0.189500	0.165500
C4121	C412	0.554200	0.138660	0.119880
C4131	C413	0.526510	0.165180	0.137490
C4141	C414	0.509690	0.257340	0.225720
H1971	H197	0.480300	0.259500	0.227800
C4151	C415	0.530670	0.236800	0.203450
N1031	N103	0.538790	0.273820	0.244080
N1041	N104	0.570020	0.240100	0.209780
N1051	N105	0.575590	0.261400	0.235380
C4161	C416	0.597140	0.133380	0.122010
H1981	H198	0.615100	0.147000	0.135400
N1061	N106	0.608770	0.104790	0.101160
N1071	N107	0.576490	0.097200	0.084930
N1081	N108	0.542510	0.114600	0.098440
C4171	C417	0.489700	0.324100	0.310520
C4181	C418	0.493440	0.301530	0.283830
H1991	H199	0.469600	0.289500	0.274900
C4191	C419	0.569120	0.315170	0.283870
H2001	H200	0.595600	0.312100	0.274900
C4201	C420	0.533360	0.297480	0.270940
C4211	C421	0.693470	0.044120	0.063730
C4221	C422	0.653440	0.058800	0.071680
H2011	H201	0.629200	0.048700	0.062100
C4231	C423	0.650110	0.088800	0.094200
C4241	C424	0.729400	0.058580	0.078350
H2021	H202	0.756200	0.049000	0.072600
C4251	C425	0.525460	0.342440	0.323580
H2031	H203	0.522800	0.357900	0.341100
C4261	C426	0.447430	0.327130	0.325670
C4271	C427	0.725260	0.087490	0.101590
C4281	C428	0.564960	0.337620	0.310460
C4291	C429	0.604270	0.354630	0.325570
C4301	C430	0.685560	0.102460	0.109830
H2041	H204	0.682700	0.121400	0.125600
C4311	C431	0.697430	0.010890	0.039760
C4321	C432	0.764290	0.101500	0.118340
O1611	O161	0.639490	0.347030	0.313240
O1621	O162	0.416900	0.306690	0.314480
O1631	O163	0.445410	0.349790	0.348780
O1641	O164	0.664220	0.994000	0.030420
O1651	O165	0.598500	0.374300	0.349380
O1661	O166	0.734810	0.003350	0.030790
O1671	O167	0.799570	0.090510	0.107910
O1681	O168	0.758440	0.122790	0.141840
Zn251	Zn25	0.694100	0.359880	0.667620
Zn261	Zn26	0.645920	0.394940	0.626090
O1691	O169	0.686910	0.308310	0.643410
O1701	O170	0.648570	0.338540	0.607380
O1711	O171	0.582740	0.249600	0.530870
O1721	O172	0.592690	0.179190	0.531300
O1731	O173	0.607820	0.424190	0.592120
H2051	H205	0.597100	0.446100	0.598700
O1741	O174	0.734130	0.333000	0.701390
H2061	H206	0.721300	0.313900	0.710000
C4331	C433	0.627830	0.220790	0.567580
C4341	C434	0.598730	0.216370	0.540880
C4351	C435	0.635240	0.261010	0.579620
H2071	H207	0.623900	0.285100	0.570600
C4361	C436	0.659870	0.264540	0.605330
C4371	C437	0.665940	0.307380	0.619980
C4381	C438	0.676620	0.228660	0.618830
H2081	H208	0.692700	0.231200	0.636200
C4391	C439	0.644810	0.184790	0.580730
H2091	H209	0.639800	0.158100	0.572500
C4401	C440	0.669360	0.188870	0.606350
N1091	N109	0.685140	0.152670	0.621220
N1101	N110	0.709700	0.155310	0.644240
N1111	N111	0.719400	0.116370	0.653320
C4411	C441	0.672890	0.111490	0.619040
H2101	H210	0.652200	0.100800	0.606200
C4421	C442	0.696100	0.088530	0.638760
C4431	C443	0.715970	0.028680	0.670580
H2111	H211	0.733200	0.047000	0.681500
C4441	C444	0.692770	0.043760	0.646390
C4451	C445	0.667650	0.016160	0.629780
H2121	H212	0.652500	0.026300	0.613500
C4461	C446	0.713230	0.986030	0.678310
C4471	C447	0.689340	0.958210	0.661150
H2131	H213	0.689500	0.929300	0.665500
C4481	C448	0.638660	0.945800	0.619880
C4491	C449	0.665180	0.973490	0.637490
C4501	C450	0.757340	0.990310	0.725720
H2141	H214	0.759500	0.019700	0.727800
C4511	C451	0.736800	0.969330	0.703450
N1121	N112	0.773820	0.961210	0.744080
N1131	N113	0.740100	0.929980	0.709780
N1141	N114	0.761400	0.924410	0.735380
C4521	C452	0.633380	0.902860	0.622010
H2151	H215	0.647000	0.884900	0.635400
N1151	N115	0.604790	0.891230	0.601160
N1161	N116	0.597200	0.923510	0.584930
N1171	N117	0.614600	0.957490	0.598440
C4531	C453	0.824100	0.010300	0.810520
C4541	C454	0.801530	0.006560	0.783830
H2161	H216	0.789500	0.030400	0.774900
C4551	C455	0.815170	0.930880	0.783870
H2171	H217	0.812100	0.904400	0.774900
C4561	C456	0.797480	0.966640	0.770940
C4571	C457	0.544120	0.806530	0.563730
C4581	C458	0.558800	0.846560	0.571680
H2181	H218	0.548700	0.870800	0.562100
C4591	C459	0.588800	0.849890	0.594200
C4601	C460	0.558580	0.770600	0.578350
H2191	H219	0.549000	0.743800	0.572600
C4611	C461	0.842440	0.974540	0.823580
H2201	H220	0.857900	0.977200	0.841100
C4621	C462	0.827130	0.052570	0.825670
C4631	C463	0.587490	0.774740	0.601590
C4641	C464	0.837620	0.935040	0.810460
C4651	C465	0.854630	0.895730	0.825570
C4661	C466	0.602460	0.814440	0.609830
H2211	H221	0.621400	0.817300	0.625600
C4671	C467	0.510890	0.802570	0.539760
C4681	C468	0.601500	0.735710	0.618340
O1751	O175	0.847030	0.860510	0.813240
O1761	O176	0.806690	0.083100	0.814480
O1771	O177	0.849790	0.054590	0.848780
O1781	O178	0.494000	0.835780	0.530420
O1791	O179	0.874300	0.901500	0.849380
O1801	O180	0.503350	0.765190	0.530790
O1811	O181	0.590510	0.700430	0.607910
O1821	O182	0.622790	0.741560	0.641840
Zn271	Zn27	0.194100	0.859880	0.167620
Zn281	Zn28	0.145920	0.894940	0.126090
O1831	O183	0.186910	0.808310	0.143410
O1841	O184	0.148570	0.838540	0.107380
O1851	O185	0.082740	0.749600	0.030870
O1861	O186	0.092690	0.679190	0.031300
O1871	O187	0.107820	0.924190	0.092120
H2221	H222	0.097100	0.946100	0.098700
O1881	O188	0.234130	0.833000	0.201390
H2231	H223	0.221300	0.813900	0.210000
C4691	C469	0.127830	0.720790	0.067580
C4701	C470	0.098730	0.716370	0.040880
C4711	C471	0.135240	0.761010	0.079620
H2241	H224	0.123900	0.785100	0.070600
C4721	C472	0.159870	0.764540	0.105330
C4731	C473	0.165940	0.807380	0.119980
C4741	C474	0.176620	0.728660	0.118830
H2251	H225	0.192700	0.731200	0.136200
C4751	C475	0.144810	0.684790	0.080730
H2261	H226	0.139800	0.658100	0.072500
C4761	C476	0.169360	0.688870	0.106350
N1181	N118	0.185140	0.652670	0.121220
N1191	N119	0.209700	0.655310	0.144240
N1201	N120	0.219400	0.616370	0.153320
C4771	C477	0.172890	0.611490	0.119040
H2271	H227	0.152200	0.600800	0.106200
C4781	C478	0.196100	0.588530	0.138760
C4791	C479	0.215970	0.528680	0.170580
H2281	H228	0.233200	0.547000	0.181500
C4801	C480	0.192770	0.543760	0.146390
C4811	C481	0.167650	0.516160	0.129780
H2291	H229	0.152500	0.526300	0.113500
C4821	C482	0.213230	0.486030	0.178310
C4831	C483	0.189340	0.458210	0.161150
H2301	H230	0.189500	0.429300	0.165500
C4841	C484	0.138660	0.445800	0.119880
C4851	C485	0.165180	0.473490	0.137490
C4861	C486	0.257340	0.490310	0.225720
H2311	H231	0.259500	0.519700	0.227800
C4871	C487	0.236800	0.469330	0.203450
N1211	N121	0.273820	0.461210	0.244080
N1221	N122	0.240100	0.429980	0.209780
N1231	N123	0.261400	0.424410	0.235380
C4881	C488	0.133380	0.402860	0.122010
H2321	H232	0.147000	0.384900	0.135400
N1241	N124	0.104790	0.391230	0.101160
N1251	N125	0.097200	0.423510	0.084930
N1261	N126	0.114600	0.457490	0.098440
C4891	C489	0.324100	0.510300	0.310520
C4901	C490	0.301530	0.506560	0.283830
H2331	H233	0.289500	0.530400	0.274900
C4911	C491	0.315170	0.430880	0.283870
H2341	H234	0.312100	0.404400	0.274900
C4921	C492	0.297480	0.466640	0.270940
C4931	C493	0.044120	0.306530	0.063730
C4941	C494	0.058800	0.346560	0.071680
H2351	H235	0.048700	0.370800	0.062100
C4951	C495	0.088800	0.349890	0.094200
C4961	C496	0.058580	0.270600	0.078350
H2361	H236	0.049000	0.243800	0.072600
C4971	C497	0.342440	0.474540	0.323580
H2371	H237	0.357900	0.477200	0.341100
C4981	C498	0.327130	0.552570	0.325670
C4991	C499	0.087490	0.274740	0.101590
C5001	C500	0.337620	0.435040	0.310460
C5011	C501	0.354630	0.395730	0.325570
C5021	C502	0.102460	0.314440	0.109830
H2381	H238	0.121400	0.317300	0.125600
C5031	C503	0.010890	0.302570	0.039760
C5041	C504	0.101500	0.235710	0.118340
O1891	O189	0.347030	0.360510	0.313240
O1901	O190	0.306690	0.583100	0.314480
O1911	O191	0.349790	0.554590	0.348780
O1921	O192	0.994000	0.335780	0.030420
O1931	O193	0.374300	0.401500	0.349380
O1941	O194	0.003350	0.265190	0.030790
O1951	O195	0.090510	0.200430	0.107910
O1961	O196	0.122790	0.241560	0.141840
Zn291	Zn29	0.305900	0.640120	0.667620
Zn301	Zn30	0.354080	0.605060	0.626090
O1971	O197	0.313090	0.691690	0.643410
O1981	O198	0.351430	0.661460	0.607380
O1991	O199	0.417260	0.750400	0.530870
O2001	O200	0.407310	0.820810	0.531300
O2011	O201	0.392180	0.575810	0.592120
H2391	H239	0.402900	0.553900	0.598700
O2021	O202	0.265870	0.667000	0.701390
H2401	H240	0.278700	0.686100	0.710000
C5051	C505	0.372170	0.779210	0.567580
C5061	C506	0.401270	0.783630	0.540880
C5071	C507	0.364760	0.738990	0.579620
H2411	H241	0.376100	0.714900	0.570600
C5081	C508	0.340130	0.735460	0.605330
C5091	C509	0.334060	0.692620	0.619980
C5101	C510	0.323380	0.771340	0.618830
H2421	H242	0.307300	0.768800	0.636200
C5111	C511	0.355190	0.815210	0.580730
H2431	H243	0.360200	0.841900	0.572500
C5121	C512	0.330640	0.811130	0.606350
N1271	N127	0.314860	0.847330	0.621220
N1281	N128	0.290300	0.844690	0.644240
N1291	N129	0.280600	0.883630	0.653320
C5131	C513	0.327110	0.888510	0.619040
H2441	H244	0.347800	0.899200	0.606200
C5141	C514	0.303900	0.911470	0.638760
C5151	C515	0.284030	0.971320	0.670580
H2451	H245	0.266800	0.953000	0.681500
C5161	C516	0.307230	0.956240	0.646390
C5171	C517	0.332350	0.983840	0.629780
H2461	H246	0.347500	0.973700	0.613500
C5181	C518	0.286770	0.013970	0.678310
C5191	C519	0.310660	0.041790	0.661150
H2471	H247	0.310500	0.070700	0.665500
C5201	C520	0.361340	0.054200	0.619880
C5211	C521	0.334820	0.026510	0.637490
C5221	C522	0.242660	0.009690	0.725720
H2481	H248	0.240500	0.980300	0.727800
C5231	C523	0.263200	0.030670	0.703450
N1301	N130	0.226180	0.038790	0.744080
N1311	N131	0.259900	0.070020	0.709780
N1321	N132	0.238600	0.075590	0.735380
C5241	C524	0.366620	0.097140	0.622010
H2491	H249	0.353000	0.115100	0.635400
N1331	N133	0.395210	0.108770	0.601160
N1341	N134	0.402800	0.076490	0.584930
N1351	N135	0.385400	0.042510	0.598440
C5251	C525	0.175900	0.989700	0.810520
C5261	C526	0.198470	0.993440	0.783830
H2501	H250	0.210500	0.969600	0.774900
C5271	C527	0.184830	0.069120	0.783870
H2511	H251	0.187900	0.095600	0.774900
C5281	C528	0.202520	0.033360	0.770940
C5291	C529	0.455880	0.193470	0.563730
C5301	C530	0.441200	0.153440	0.571680
H2521	H252	0.451300	0.129200	0.562100
C5311	C531	0.411200	0.150110	0.594200
C5321	C532	0.441420	0.229400	0.578350
H2531	H253	0.451000	0.256200	0.572600
C5331	C533	0.157560	0.025460	0.823580
H2541	H254	0.142100	0.022800	0.841100
C5341	C534	0.172870	0.947430	0.825670
C5351	C535	0.412510	0.225260	0.601590
C5361	C536	0.162380	0.064960	0.810460
C5371	C537	0.145370	0.104270	0.825570
C5381	C538	0.397540	0.185560	0.609830
H2551	H255	0.378600	0.182700	0.625600
C5391	C539	0.489110	0.197430	0.539760
C5401	C540	0.398500	0.264290	0.618340
O2031	O203	0.152970	0.139490	0.813240
O2041	O204	0.193310	0.916900	0.814480
O2051	O205	0.150210	0.945410	0.848780
O2061	O206	0.506000	0.164220	0.530420
O2071	O207	0.125700	0.098500	0.849380
O2081	O208	0.496650	0.234810	0.530790
O2091	O209	0.409490	0.299570	0.607910
O2101	O210	0.377210	0.258440	0.641840
Zn311	Zn31	0.805900	0.140120	0.167620
Zn321	Zn32	0.854080	0.105060	0.126090
O2111	O211	0.813090	0.191690	0.143410
O2121	O212	0.851430	0.161460	0.107380
O2131	O213	0.917260	0.250400	0.030870
O2141	O214	0.907310	0.320810	0.031300
O2151	O215	0.892180	0.075810	0.092120
H2561	H256	0.902900	0.053900	0.098700
O2161	O216	0.765870	0.167000	0.201390
H2571	H257	0.778700	0.186100	0.210000
C5411	C541	0.872170	0.279210	0.067580
C5421	C542	0.901270	0.283630	0.040880
C5431	C543	0.864760	0.238990	0.079620
H2581	H258	0.876100	0.214900	0.070600
C5441	C544	0.840130	0.235460	0.105330
C5451	C545	0.834060	0.192620	0.119980
C5461	C546	0.823380	0.271340	0.118830
H2591	H259	0.807300	0.268800	0.136200
C5471	C547	0.855190	0.315210	0.080730
H2601	H260	0.860200	0.341900	0.072500
C5481	C548	0.830640	0.311130	0.106350
N1361	N136	0.814860	0.347330	0.121220
N1371	N137	0.790300	0.344690	0.144240
N1381	N138	0.780600	0.383630	0.153320
C5491	C549	0.827110	0.388510	0.119040
H2611	H261	0.847800	0.399200	0.106200
C5501	C550	0.803900	0.411470	0.138760
C5511	C551	0.784030	0.471320	0.170580
H2621	H262	0.766800	0.453000	0.181500
C5521	C552	0.807230	0.456240	0.146390
C5531	C553	0.832350	0.483840	0.129780
H2631	H263	0.847500	0.473700	0.113500
C5541	C554	0.786770	0.513970	0.178310
C5551	C555	0.810660	0.541790	0.161150
H2641	H264	0.810500	0.570700	0.165500
C5561	C556	0.861340	0.554200	0.119880
C5571	C557	0.834820	0.526510	0.137490
C5581	C558	0.742660	0.509690	0.225720
H2651	H265	0.740500	0.480300	0.227800
C5591	C559	0.763200	0.530670	0.203450
N1391	N139	0.726180	0.538790	0.244080
N1401	N140	0.759900	0.570020	0.209780
N1411	N141	0.738600	0.575590	0.235380
C5601	C560	0.866620	0.597140	0.122010
H2661	H266	0.853000	0.615100	0.135400
N1421	N142	0.895210	0.608770	0.101160
N1431	N143	0.902800	0.576490	0.084930
N1441	N144	0.885400	0.542510	0.098440
C5611	C561	0.675900	0.489700	0.310520
C5621	C562	0.698470	0.493440	0.283830
H2671	H267	0.710500	0.469600	0.274900
C5631	C563	0.684830	0.569120	0.283870
H2681	H268	0.687900	0.595600	0.274900
C5641	C564	0.702520	0.533360	0.270940
C5651	C565	0.955880	0.693470	0.063730
C5661	C566	0.941200	0.653440	0.071680
H2691	H269	0.951300	0.629200	0.062100
C5671	C567	0.911200	0.650110	0.094200
C5681	C568	0.941420	0.729400	0.078350
H2701	H270	0.951000	0.756200	0.072600
C5691	C569	0.657560	0.525460	0.323580
H2711	H271	0.642100	0.522800	0.341100
C5701	C570	0.672870	0.447430	0.325670
C5711	C571	0.912510	0.725260	0.101590
C5721	C572	0.662380	0.564960	0.310460
C5731	C573	0.645370	0.604270	0.325570
C5741	C574	0.897540	0.685560	0.109830
H2721	H272	0.878600	0.682700	0.125600
C5751	C575	0.989110	0.697430	0.039760
C5761	C576	0.898500	0.764290	0.118340
O2171	O217	0.652970	0.639490	0.313240
O2181	O218	0.693310	0.416900	0.314480
O2191	O219	0.650210	0.445410	0.348780
O2201	O220	0.006000	0.664220	0.030420
O2211	O221	0.625700	0.598500	0.349380
O2221	O222	0.996650	0.734810	0.030790
O2231	O223	0.909490	0.799570	0.107910
O2241	O224	0.877210	0.758440	0.141840
Zn331	Zn33	0.751370	0.538880	0.500000
Zn341	Zn34	0.834530	0.551120	0.500000
Zn351	Zn35	0.251370	0.038880	0.000000
Zn361	Zn36	0.334530	0.051120	0.000000
Zn371	Zn37	0.248630	0.461120	0.500000
Zn381	Zn38	0.165470	0.448880	0.500000
Zn391	Zn39	0.748630	0.961120	0.000000
Zn401	Zn40	0.665470	0.948880	0.000000
Zn411	Zn41	0.461120	0.751370	0.500000
Zn421	Zn42	0.448880	0.834530	0.500000
Zn431	Zn43	0.961120	0.251370	0.000000
Zn441	Zn44	0.948880	0.334530	0.000000
Zn451	Zn45	0.538880	0.248630	0.500000
Zn461	Zn46	0.551120	0.165470	0.500000
Zn471	Zn47	0.038880	0.748630	0.000000
Zn481	Zn48	0.051120	0.665470	0.000000
