data_YUZPIU_clean_PM
_symmetry_space_group_name_H-M	'P1'
_cell_length_a	38.168200
_cell_length_b	38.168200
_cell_length_c	55.091700
_cell_angle_alpha	90.000000
_cell_angle_beta	90.000000
_cell_angle_gamma	90.000000
_symmetry_Int_Tables_number 1

loop_
_symmetry_equiv_pos_as_xyz
'x,y,z'

loop_
_atom_site_label
_atom_site_type_symbol
_atom_site_fract_x
_atom_site_fract_y
_atom_site_fract_z
C11	C1	0.355350	0.253720	0.065780
H11	H1	0.356500	0.231500	0.058800
C21	C2	0.332550	0.292300	0.096380
H21	H2	0.318500	0.295700	0.110000
C31	C3	0.308490	0.142930	0.121770
C41	C4	0.337190	0.121370	0.117090
H31	H3	0.357400	0.130000	0.109800
C51	C5	0.282300	0.129970	0.135260
H41	H4	0.263700	0.144200	0.139800
C61	C6	0.334330	0.086380	0.123790
H51	H5	0.351400	0.071000	0.118100
C71	C7	0.283200	0.094320	0.142610
H61	H6	0.264400	0.085500	0.151400
C81	C8	0.309170	0.073390	0.137630
C91	C9	0.309610	0.036570	0.146300
C101	C10	0.289820	0.026880	0.166610
H71	H7	0.276200	0.043400	0.174700
C111	C11	0.331980	0.011840	0.135500
H81	H8	0.346200	0.018600	0.122600
Zn11	Zn1	0.425790	0.628310	0.102130
Zn21	Zn2	0.401140	0.670510	0.136180
O11	O1	0.381110	0.704230	0.164020
H91	H9	0.362500	0.696400	0.169000
O21	O2	0.446670	0.594480	0.074310
H101	H10	0.466900	0.600200	0.071300
O31	O3	0.418910	0.707520	0.115290
O41	O4	0.519020	0.717970	0.025330
O51	O5	0.441890	0.671650	0.087570
O61	O6	0.532590	0.775200	0.024940
C121	C12	0.474530	0.727030	0.063770
H111	H11	0.480200	0.704300	0.059100
C131	C13	0.436890	0.701370	0.096400
N11	N1	0.446570	0.828910	0.083390
C141	C14	0.489430	0.755230	0.051820
C151	C15	0.516610	0.749120	0.032030
C161	C16	0.480530	0.789020	0.058190
H121	H12	0.490200	0.808000	0.050000
C171	C17	0.451240	0.732630	0.082640
C181	C18	0.373760	0.891750	0.121820
H131	H13	0.370300	0.868000	0.124800
N21	N2	0.449630	0.884210	0.084000
C191	C19	0.230310	0.963960	0.236930
C201	C20	0.441960	0.766370	0.089340
H141	H14	0.426100	0.770200	0.101900
C211	C21	0.456800	0.794200	0.077000
C221	C22	0.269110	0.982160	0.196090
C231	C23	0.333140	0.977050	0.143800
C241	C24	0.312230	0.967950	0.162810
H151	H15	0.312300	0.944800	0.168100
C251	C25	0.240070	0.995200	0.233510
H161	H16	0.234300	0.012100	0.245000
C261	C26	0.420390	0.840220	0.097070
H171	H17	0.403500	0.826500	0.104700
C271	C27	0.290790	0.992020	0.174610
C281	C28	0.399050	0.901090	0.108870
C291	C29	0.386500	0.960280	0.120640
H181	H18	0.392600	0.983900	0.120400
C301	C30	0.356570	0.951120	0.131900
C311	C31	0.257900	0.949360	0.199520
H191	H19	0.264300	0.932100	0.188500
C321	C32	0.422880	0.875410	0.097790
C331	C33	0.259170	0.005340	0.213120
H201	H20	0.265200	0.028800	0.211200
C341	C34	0.237100	0.940390	0.218790
H211	H21	0.227500	0.918000	0.219600
C351	C35	0.349520	0.916960	0.132420
H221	H22	0.328900	0.909100	0.139600
C361	C36	0.409300	0.936250	0.109170
H231	H23	0.430200	0.943500	0.102100
N31	N3	0.464680	0.856350	0.075770
C371	C37	0.372590	0.281980	0.055130
C381	C38	0.369360	0.315180	0.064650
H241	H24	0.380300	0.334100	0.057200
C391	C39	0.349560	0.320040	0.085610
C401	C40	0.396360	0.275580	0.033450
N41	N4	0.320250	0.229460	0.098590
C411	C41	0.336750	0.259060	0.086490
C421	C42	0.331560	0.196740	0.098740
H251	H25	0.351100	0.187800	0.090800
C431	C43	0.308090	0.178740	0.113130
N51	N5	0.284300	0.203080	0.121260
N61	N6	0.179480	0.950830	0.291070
C441	C44	0.197340	0.972340	0.277270
H261	H26	0.200600	0.996200	0.280000
C451	C45	0.209910	0.953920	0.258730
N71	N7	0.179400	0.919820	0.281060
N81	N8	0.197500	0.920970	0.261340
O71	O7	0.411810	0.301370	0.025220
O81	O8	0.398200	0.244800	0.025540
C461	C46	0.162050	0.988730	0.324190
H271	H27	0.173900	0.007100	0.316700
C471	C47	0.145130	0.928020	0.324510
H281	H28	0.145900	0.906000	0.317300
C481	C48	0.161550	0.956470	0.313810
C491	C49	0.127220	0.965890	0.356880
H291	H29	0.115300	0.969300	0.371400
C501	C50	0.127540	0.933360	0.346310
C511	C51	0.144740	0.994160	0.345990
C521	C52	0.347990	0.355930	0.097920
C531	C53	0.146440	0.028810	0.358770
C541	C54	0.111360	0.902160	0.358790
N91	N9	0.292490	0.233700	0.112580
O91	O9	0.127750	0.032450	0.377420
O101	O10	0.364890	0.379590	0.086900
O111	O11	0.331100	0.357810	0.116650
O121	O12	0.095200	0.909250	0.378010
O131	O13	0.165140	0.052020	0.349380
O141	O14	0.113840	0.873570	0.348590
H301	H30	0.296900	0.134900	0.106900
C551	C55	0.855350	0.753720	0.565780
H311	H31	0.856500	0.731500	0.558800
C561	C56	0.832550	0.792300	0.596380
H321	H32	0.818500	0.795700	0.610000
C571	C57	0.808490	0.642930	0.621770
C581	C58	0.837190	0.621370	0.617090
H331	H33	0.857400	0.630000	0.609800
C591	C59	0.782300	0.629970	0.635260
H341	H34	0.763700	0.644200	0.639800
C601	C60	0.834330	0.586380	0.623790
H351	H35	0.851400	0.571000	0.618100
C611	C61	0.783200	0.594320	0.642610
H361	H36	0.764400	0.585500	0.651400
C621	C62	0.809170	0.573390	0.637630
C631	C63	0.809610	0.536570	0.646300
C641	C64	0.789820	0.526880	0.666610
H371	H37	0.776200	0.543400	0.674700
C651	C65	0.831980	0.511840	0.635500
H381	H38	0.846200	0.518600	0.622600
Zn31	Zn3	0.925790	0.128310	0.602130
Zn41	Zn4	0.901140	0.170510	0.636180
O151	O15	0.881110	0.204230	0.664020
H391	H39	0.862500	0.196400	0.669000
O161	O16	0.946670	0.094480	0.574310
H401	H40	0.966900	0.100200	0.571300
O171	O17	0.918910	0.207520	0.615290
O181	O18	0.019020	0.217970	0.525330
O191	O19	0.941890	0.171650	0.587570
O201	O20	0.032590	0.275200	0.524940
C661	C66	0.974530	0.227030	0.563770
H411	H41	0.980200	0.204300	0.559100
C671	C67	0.936890	0.201370	0.596400
N101	N10	0.946570	0.328910	0.583390
C681	C68	0.989430	0.255230	0.551820
C691	C69	0.016610	0.249120	0.532030
C701	C70	0.980530	0.289020	0.558190
H421	H42	0.990200	0.308000	0.550000
C711	C71	0.951240	0.232630	0.582640
C721	C72	0.873760	0.391750	0.621820
H431	H43	0.870300	0.368000	0.624800
N111	N11	0.949630	0.384210	0.584000
C731	C73	0.730310	0.463960	0.736930
C741	C74	0.941960	0.266370	0.589340
H441	H44	0.926100	0.270200	0.601900
C751	C75	0.956800	0.294200	0.577000
C761	C76	0.769110	0.482160	0.696090
C771	C77	0.833140	0.477050	0.643800
C781	C78	0.812230	0.467950	0.662810
H451	H45	0.812300	0.444800	0.668100
C791	C79	0.740070	0.495200	0.733510
H461	H46	0.734300	0.512100	0.745000
C801	C80	0.920390	0.340220	0.597070
H471	H47	0.903500	0.326500	0.604700
C811	C81	0.790790	0.492020	0.674610
C821	C82	0.899050	0.401090	0.608870
C831	C83	0.886500	0.460280	0.620640
H481	H48	0.892600	0.483900	0.620400
C841	C84	0.856570	0.451120	0.631900
C851	C85	0.757900	0.449360	0.699520
H491	H49	0.764300	0.432100	0.688500
C861	C86	0.922880	0.375410	0.597790
C871	C87	0.759170	0.505340	0.713120
H501	H50	0.765200	0.528800	0.711200
C881	C88	0.737100	0.440390	0.718790
H511	H51	0.727500	0.418000	0.719600
C891	C89	0.849520	0.416960	0.632420
H521	H52	0.828900	0.409100	0.639600
C901	C90	0.909300	0.436250	0.609170
H531	H53	0.930200	0.443500	0.602100
N121	N12	0.964680	0.356350	0.575770
C911	C91	0.872590	0.781980	0.555130
C921	C92	0.869360	0.815180	0.564650
H541	H54	0.880300	0.834100	0.557200
C931	C93	0.849560	0.820040	0.585610
C941	C94	0.896360	0.775580	0.533450
N131	N13	0.820250	0.729460	0.598590
C951	C95	0.836750	0.759060	0.586490
C961	C96	0.831560	0.696740	0.598740
H551	H55	0.851100	0.687800	0.590800
C971	C97	0.808090	0.678740	0.613130
N141	N14	0.784300	0.703080	0.621260
N151	N15	0.679480	0.450830	0.791070
C981	C98	0.697340	0.472340	0.777270
H561	H56	0.700600	0.496200	0.780000
C991	C99	0.709910	0.453920	0.758730
N161	N16	0.679400	0.419820	0.781060
N171	N17	0.697500	0.420970	0.761340
O211	O21	0.911810	0.801370	0.525220
O221	O22	0.898200	0.744800	0.525540
C1001	C100	0.662050	0.488730	0.824190
H571	H57	0.673900	0.507100	0.816700
C1011	C101	0.645130	0.428020	0.824510
H581	H58	0.645900	0.406000	0.817300
C1021	C102	0.661550	0.456470	0.813810
C1031	C103	0.627220	0.465890	0.856880
H591	H59	0.615300	0.469300	0.871400
C1041	C104	0.627540	0.433360	0.846310
C1051	C105	0.644740	0.494160	0.845990
C1061	C106	0.847990	0.855930	0.597920
C1071	C107	0.646440	0.528810	0.858770
C1081	C108	0.611360	0.402160	0.858790
N181	N18	0.792490	0.733700	0.612580
O231	O23	0.627750	0.532450	0.877420
O241	O24	0.864890	0.879590	0.586900
O251	O25	0.831100	0.857810	0.616650
O261	O26	0.595200	0.409250	0.878010
O271	O27	0.665140	0.552020	0.849380
O281	O28	0.613840	0.373570	0.848590
H601	H60	0.796900	0.634900	0.606900
C1091	C109	0.644650	0.746280	0.065780
H611	H61	0.643500	0.768500	0.058800
C1101	C110	0.667450	0.707700	0.096380
H621	H62	0.681500	0.704300	0.110000
C1111	C111	0.691510	0.857070	0.121770
C1121	C112	0.662810	0.878630	0.117090
H631	H63	0.642600	0.870000	0.109800
C1131	C113	0.717700	0.870030	0.135260
H641	H64	0.736300	0.855800	0.139800
C1141	C114	0.665670	0.913620	0.123790
H651	H65	0.648600	0.929000	0.118100
C1151	C115	0.716800	0.905680	0.142610
H661	H66	0.735600	0.914500	0.151400
C1161	C116	0.690830	0.926610	0.137630
C1171	C117	0.690390	0.963430	0.146300
C1181	C118	0.710180	0.973120	0.166610
H671	H67	0.723800	0.956600	0.174700
C1191	C119	0.668020	0.988160	0.135500
H681	H68	0.653800	0.981400	0.122600
Zn51	Zn5	0.574210	0.371690	0.102130
Zn61	Zn6	0.598860	0.329490	0.136180
O291	O29	0.618890	0.295770	0.164020
H691	H69	0.637500	0.303600	0.169000
O301	O30	0.553330	0.405520	0.074310
H701	H70	0.533100	0.399800	0.071300
O311	O31	0.581090	0.292480	0.115290
O321	O32	0.480980	0.282030	0.025330
O331	O33	0.558110	0.328350	0.087570
O341	O34	0.467410	0.224800	0.024940
C1201	C120	0.525470	0.272970	0.063770
H711	H71	0.519800	0.295700	0.059100
C1211	C121	0.563110	0.298630	0.096400
N191	N19	0.553430	0.171090	0.083390
C1221	C122	0.510570	0.244770	0.051820
C1231	C123	0.483390	0.250880	0.032030
C1241	C124	0.519470	0.210980	0.058190
H721	H72	0.509800	0.192000	0.050000
C1251	C125	0.548760	0.267370	0.082640
C1261	C126	0.626240	0.108250	0.121820
H731	H73	0.629700	0.132000	0.124800
N201	N20	0.550370	0.115790	0.084000
C1271	C127	0.769690	0.036040	0.236930
C1281	C128	0.558040	0.233630	0.089340
H741	H74	0.573900	0.229800	0.101900
C1291	C129	0.543200	0.205800	0.077000
C1301	C130	0.730890	0.017840	0.196090
C1311	C131	0.666860	0.022950	0.143800
C1321	C132	0.687770	0.032050	0.162810
H751	H75	0.687700	0.055200	0.168100
C1331	C133	0.759930	0.004800	0.233510
H761	H76	0.765700	0.987900	0.245000
C1341	C134	0.579610	0.159780	0.097070
H771	H77	0.596500	0.173500	0.104700
C1351	C135	0.709210	0.007980	0.174610
C1361	C136	0.600950	0.098910	0.108870
C1371	C137	0.613500	0.039720	0.120640
H781	H78	0.607400	0.016100	0.120400
C1381	C138	0.643430	0.048880	0.131900
C1391	C139	0.742100	0.050640	0.199520
H791	H79	0.735700	0.067900	0.188500
C1401	C140	0.577120	0.124590	0.097790
C1411	C141	0.740830	0.994660	0.213120
H801	H80	0.734800	0.971200	0.211200
C1421	C142	0.762900	0.059610	0.218790
H811	H81	0.772500	0.082000	0.219600
C1431	C143	0.650480	0.083040	0.132420
H821	H82	0.671100	0.090900	0.139600
C1441	C144	0.590700	0.063750	0.109170
H831	H83	0.569800	0.056500	0.102100
N211	N21	0.535320	0.143650	0.075770
C1451	C145	0.627410	0.718020	0.055130
C1461	C146	0.630640	0.684820	0.064650
H841	H84	0.619700	0.665900	0.057200
C1471	C147	0.650440	0.679960	0.085610
C1481	C148	0.603640	0.724420	0.033450
N221	N22	0.679750	0.770540	0.098590
C1491	C149	0.663250	0.740940	0.086490
C1501	C150	0.668440	0.803260	0.098740
H851	H85	0.648900	0.812200	0.090800
C1511	C151	0.691910	0.821260	0.113130
N231	N23	0.715700	0.796920	0.121260
N241	N24	0.820520	0.049170	0.291070
C1521	C152	0.802660	0.027660	0.277270
H861	H86	0.799400	0.003800	0.280000
C1531	C153	0.790090	0.046080	0.258730
N251	N25	0.820600	0.080180	0.281060
N261	N26	0.802500	0.079030	0.261340
O351	O35	0.588190	0.698630	0.025220
O361	O36	0.601800	0.755200	0.025540
C1541	C154	0.837950	0.011270	0.324190
H871	H87	0.826100	0.992900	0.316700
C1551	C155	0.854870	0.071980	0.324510
H881	H88	0.854100	0.094000	0.317300
C1561	C156	0.838450	0.043530	0.313810
C1571	C157	0.872780	0.034110	0.356880
H891	H89	0.884700	0.030700	0.371400
C1581	C158	0.872460	0.066640	0.346310
C1591	C159	0.855260	0.005840	0.345990
C1601	C160	0.652010	0.644070	0.097920
C1611	C161	0.853560	0.971190	0.358770
C1621	C162	0.888640	0.097840	0.358790
N271	N27	0.707510	0.766300	0.112580
O371	O37	0.872250	0.967550	0.377420
O381	O38	0.635110	0.620410	0.086900
O391	O39	0.668900	0.642190	0.116650
O401	O40	0.904800	0.090750	0.378010
O411	O41	0.834860	0.947980	0.349380
O421	O42	0.886160	0.126430	0.348590
H901	H90	0.703100	0.865100	0.106900
C1631	C163	0.144650	0.246280	0.565780
H911	H91	0.143500	0.268500	0.558800
C1641	C164	0.167450	0.207700	0.596380
H921	H92	0.181500	0.204300	0.610000
C1651	C165	0.191510	0.357070	0.621770
C1661	C166	0.162810	0.378630	0.617090
H931	H93	0.142600	0.370000	0.609800
C1671	C167	0.217700	0.370030	0.635260
H941	H94	0.236300	0.355800	0.639800
C1681	C168	0.165670	0.413620	0.623790
H951	H95	0.148600	0.429000	0.618100
C1691	C169	0.216800	0.405680	0.642610
H961	H96	0.235600	0.414500	0.651400
C1701	C170	0.190830	0.426610	0.637630
C1711	C171	0.190390	0.463430	0.646300
C1721	C172	0.210180	0.473120	0.666610
H971	H97	0.223800	0.456600	0.674700
C1731	C173	0.168020	0.488160	0.635500
H981	H98	0.153800	0.481400	0.622600
Zn71	Zn7	0.074210	0.871690	0.602130
Zn81	Zn8	0.098860	0.829490	0.636180
O431	O43	0.118890	0.795770	0.664020
H991	H99	0.137500	0.803600	0.669000
O441	O44	0.053330	0.905520	0.574310
H1001	H100	0.033100	0.899800	0.571300
O451	O45	0.081090	0.792480	0.615290
O461	O46	0.980980	0.782030	0.525330
O471	O47	0.058110	0.828350	0.587570
O481	O48	0.967410	0.724800	0.524940
C1741	C174	0.025470	0.772970	0.563770
H1011	H101	0.019800	0.795700	0.559100
C1751	C175	0.063110	0.798630	0.596400
N281	N28	0.053430	0.671090	0.583390
C1761	C176	0.010570	0.744770	0.551820
C1771	C177	0.983390	0.750880	0.532030
C1781	C178	0.019470	0.710980	0.558190
H1021	H102	0.009800	0.692000	0.550000
C1791	C179	0.048760	0.767370	0.582640
C1801	C180	0.126240	0.608250	0.621820
H1031	H103	0.129700	0.632000	0.624800
N291	N29	0.050370	0.615790	0.584000
C1811	C181	0.269690	0.536040	0.736930
C1821	C182	0.058040	0.733630	0.589340
H1041	H104	0.073900	0.729800	0.601900
C1831	C183	0.043200	0.705800	0.577000
C1841	C184	0.230890	0.517840	0.696090
C1851	C185	0.166860	0.522950	0.643800
C1861	C186	0.187770	0.532050	0.662810
H1051	H105	0.187700	0.555200	0.668100
C1871	C187	0.259930	0.504800	0.733510
H1061	H106	0.265700	0.487900	0.745000
C1881	C188	0.079610	0.659780	0.597070
H1071	H107	0.096500	0.673500	0.604700
C1891	C189	0.209210	0.507980	0.674610
C1901	C190	0.100950	0.598910	0.608870
C1911	C191	0.113500	0.539720	0.620640
H1081	H108	0.107400	0.516100	0.620400
C1921	C192	0.143430	0.548880	0.631900
C1931	C193	0.242100	0.550640	0.699520
H1091	H109	0.235700	0.567900	0.688500
C1941	C194	0.077120	0.624590	0.597790
C1951	C195	0.240830	0.494660	0.713120
H1101	H110	0.234800	0.471200	0.711200
C1961	C196	0.262900	0.559610	0.718790
H1111	H111	0.272500	0.582000	0.719600
C1971	C197	0.150480	0.583040	0.632420
H1121	H112	0.171100	0.590900	0.639600
C1981	C198	0.090700	0.563750	0.609170
H1131	H113	0.069800	0.556500	0.602100
N301	N30	0.035320	0.643650	0.575770
C1991	C199	0.127410	0.218020	0.555130
C2001	C200	0.130640	0.184820	0.564650
H1141	H114	0.119700	0.165900	0.557200
C2011	C201	0.150440	0.179960	0.585610
C2021	C202	0.103640	0.224420	0.533450
N311	N31	0.179750	0.270540	0.598590
C2031	C203	0.163250	0.240940	0.586490
C2041	C204	0.168440	0.303260	0.598740
H1151	H115	0.148900	0.312200	0.590800
C2051	C205	0.191910	0.321260	0.613130
N321	N32	0.215700	0.296920	0.621260
N331	N33	0.320520	0.549170	0.791070
C2061	C206	0.302660	0.527660	0.777270
H1161	H116	0.299400	0.503800	0.780000
C2071	C207	0.290090	0.546080	0.758730
N341	N34	0.320600	0.580180	0.781060
N351	N35	0.302500	0.579030	0.761340
O491	O49	0.088190	0.198630	0.525220
O501	O50	0.101800	0.255200	0.525540
C2081	C208	0.337950	0.511270	0.824190
H1171	H117	0.326100	0.492900	0.816700
C2091	C209	0.354870	0.571980	0.824510
H1181	H118	0.354100	0.594000	0.817300
C2101	C210	0.338450	0.543530	0.813810
C2111	C211	0.372780	0.534110	0.856880
H1191	H119	0.384700	0.530700	0.871400
C2121	C212	0.372460	0.566640	0.846310
C2131	C213	0.355260	0.505840	0.845990
C2141	C214	0.152010	0.144070	0.597920
C2151	C215	0.353560	0.471190	0.858770
C2161	C216	0.388640	0.597840	0.858790
N361	N36	0.207510	0.266300	0.612580
O511	O51	0.372250	0.467550	0.877420
O521	O52	0.135110	0.120410	0.586900
O531	O53	0.168900	0.142190	0.616650
O541	O54	0.404800	0.590750	0.878010
O551	O55	0.334860	0.447980	0.849380
O561	O56	0.386160	0.626430	0.848590
H1201	H120	0.203100	0.365100	0.606900
C2171	C217	0.746280	0.355350	0.065780
H1211	H121	0.768500	0.356500	0.058800
C2181	C218	0.707700	0.332550	0.096380
H1221	H122	0.704300	0.318500	0.110000
C2191	C219	0.857070	0.308490	0.121770
C2201	C220	0.878630	0.337190	0.117090
H1231	H123	0.870000	0.357400	0.109800
C2211	C221	0.870030	0.282300	0.135260
H1241	H124	0.855800	0.263700	0.139800
C2221	C222	0.913620	0.334330	0.123790
H1251	H125	0.929000	0.351400	0.118100
C2231	C223	0.905680	0.283200	0.142610
H1261	H126	0.914500	0.264400	0.151400
C2241	C224	0.926610	0.309170	0.137630
C2251	C225	0.963430	0.309610	0.146300
C2261	C226	0.973120	0.289820	0.166610
H1271	H127	0.956600	0.276200	0.174700
C2271	C227	0.988160	0.331980	0.135500
H1281	H128	0.981400	0.346200	0.122600
Zn91	Zn9	0.371690	0.425790	0.102130
Zn101	Zn10	0.329490	0.401140	0.136180
O571	O57	0.295770	0.381110	0.164020
H1291	H129	0.303600	0.362500	0.169000
O581	O58	0.405520	0.446670	0.074310
H1301	H130	0.399800	0.466900	0.071300
O591	O59	0.292480	0.418910	0.115290
O601	O60	0.282030	0.519020	0.025330
O611	O61	0.328350	0.441890	0.087570
O621	O62	0.224800	0.532590	0.024940
C2281	C228	0.272970	0.474530	0.063770
H1311	H131	0.295700	0.480200	0.059100
C2291	C229	0.298630	0.436890	0.096400
N371	N37	0.171090	0.446570	0.083390
C2301	C230	0.244770	0.489430	0.051820
C2311	C231	0.250880	0.516610	0.032030
C2321	C232	0.210980	0.480530	0.058190
H1321	H132	0.192000	0.490200	0.050000
C2331	C233	0.267370	0.451240	0.082640
C2341	C234	0.108250	0.373760	0.121820
H1331	H133	0.132000	0.370300	0.124800
N381	N38	0.115790	0.449630	0.084000
C2351	C235	0.036040	0.230310	0.236930
C2361	C236	0.233630	0.441960	0.089340
H1341	H134	0.229800	0.426100	0.101900
C2371	C237	0.205800	0.456800	0.077000
C2381	C238	0.017840	0.269110	0.196090
C2391	C239	0.022950	0.333140	0.143800
C2401	C240	0.032050	0.312230	0.162810
H1351	H135	0.055200	0.312300	0.168100
C2411	C241	0.004800	0.240070	0.233510
H1361	H136	0.987900	0.234300	0.245000
C2421	C242	0.159780	0.420390	0.097070
H1371	H137	0.173500	0.403500	0.104700
C2431	C243	0.007980	0.290790	0.174610
C2441	C244	0.098910	0.399050	0.108870
C2451	C245	0.039720	0.386500	0.120640
H1381	H138	0.016100	0.392600	0.120400
C2461	C246	0.048880	0.356570	0.131900
C2471	C247	0.050640	0.257900	0.199520
H1391	H139	0.067900	0.264300	0.188500
C2481	C248	0.124590	0.422880	0.097790
C2491	C249	0.994660	0.259170	0.213120
H1401	H140	0.971200	0.265200	0.211200
C2501	C250	0.059610	0.237100	0.218790
H1411	H141	0.082000	0.227500	0.219600
C2511	C251	0.083040	0.349520	0.132420
H1421	H142	0.090900	0.328900	0.139600
C2521	C252	0.063750	0.409300	0.109170
H1431	H143	0.056500	0.430200	0.102100
N391	N39	0.143650	0.464680	0.075770
C2531	C253	0.718020	0.372590	0.055130
C2541	C254	0.684820	0.369360	0.064650
H1441	H144	0.665900	0.380300	0.057200
C2551	C255	0.679960	0.349560	0.085610
C2561	C256	0.724420	0.396360	0.033450
N401	N40	0.770540	0.320250	0.098590
C2571	C257	0.740940	0.336750	0.086490
C2581	C258	0.803260	0.331560	0.098740
H1451	H145	0.812200	0.351100	0.090800
C2591	C259	0.821260	0.308090	0.113130
N411	N41	0.796920	0.284300	0.121260
N421	N42	0.049170	0.179480	0.291070
C2601	C260	0.027660	0.197340	0.277270
H1461	H146	0.003800	0.200600	0.280000
C2611	C261	0.046080	0.209910	0.258730
N431	N43	0.080180	0.179400	0.281060
N441	N44	0.079030	0.197500	0.261340
O631	O63	0.698630	0.411810	0.025220
O641	O64	0.755200	0.398200	0.025540
C2621	C262	0.011270	0.162050	0.324190
H1471	H147	0.992900	0.173900	0.316700
C2631	C263	0.071980	0.145130	0.324510
H1481	H148	0.094000	0.145900	0.317300
C2641	C264	0.043530	0.161550	0.313810
C2651	C265	0.034110	0.127220	0.356880
H1491	H149	0.030700	0.115300	0.371400
C2661	C266	0.066640	0.127540	0.346310
C2671	C267	0.005840	0.144740	0.345990
C2681	C268	0.644070	0.347990	0.097920
C2691	C269	0.971190	0.146440	0.358770
C2701	C270	0.097840	0.111360	0.358790
N451	N45	0.766300	0.292490	0.112580
O651	O65	0.967550	0.127750	0.377420
O661	O66	0.620410	0.364890	0.086900
O671	O67	0.642190	0.331100	0.116650
O681	O68	0.090750	0.095200	0.378010
O691	O69	0.947980	0.165140	0.349380
O701	O70	0.126430	0.113840	0.348590
H1501	H150	0.865100	0.296900	0.106900
C2711	C271	0.246280	0.855350	0.565780
H1511	H151	0.268500	0.856500	0.558800
C2721	C272	0.207700	0.832550	0.596380
H1521	H152	0.204300	0.818500	0.610000
C2731	C273	0.357070	0.808490	0.621770
C2741	C274	0.378630	0.837190	0.617090
H1531	H153	0.370000	0.857400	0.609800
C2751	C275	0.370030	0.782300	0.635260
H1541	H154	0.355800	0.763700	0.639800
C2761	C276	0.413620	0.834330	0.623790
H1551	H155	0.429000	0.851400	0.618100
C2771	C277	0.405680	0.783200	0.642610
H1561	H156	0.414500	0.764400	0.651400
C2781	C278	0.426610	0.809170	0.637630
C2791	C279	0.463430	0.809610	0.646300
C2801	C280	0.473120	0.789820	0.666610
H1571	H157	0.456600	0.776200	0.674700
C2811	C281	0.488160	0.831980	0.635500
H1581	H158	0.481400	0.846200	0.622600
Zn111	Zn11	0.871690	0.925790	0.602130
Zn121	Zn12	0.829490	0.901140	0.636180
O711	O71	0.795770	0.881110	0.664020
H1591	H159	0.803600	0.862500	0.669000
O721	O72	0.905520	0.946670	0.574310
H1601	H160	0.899800	0.966900	0.571300
O731	O73	0.792480	0.918910	0.615290
O741	O74	0.782030	0.019020	0.525330
O751	O75	0.828350	0.941890	0.587570
O761	O76	0.724800	0.032590	0.524940
C2821	C282	0.772970	0.974530	0.563770
H1611	H161	0.795700	0.980200	0.559100
C2831	C283	0.798630	0.936890	0.596400
N461	N46	0.671090	0.946570	0.583390
C2841	C284	0.744770	0.989430	0.551820
C2851	C285	0.750880	0.016610	0.532030
C2861	C286	0.710980	0.980530	0.558190
H1621	H162	0.692000	0.990200	0.550000
C2871	C287	0.767370	0.951240	0.582640
C2881	C288	0.608250	0.873760	0.621820
H1631	H163	0.632000	0.870300	0.624800
N471	N47	0.615790	0.949630	0.584000
C2891	C289	0.536040	0.730310	0.736930
C2901	C290	0.733630	0.941960	0.589340
H1641	H164	0.729800	0.926100	0.601900
C2911	C291	0.705800	0.956800	0.577000
C2921	C292	0.517840	0.769110	0.696090
C2931	C293	0.522950	0.833140	0.643800
C2941	C294	0.532050	0.812230	0.662810
H1651	H165	0.555200	0.812300	0.668100
C2951	C295	0.504800	0.740070	0.733510
H1661	H166	0.487900	0.734300	0.745000
C2961	C296	0.659780	0.920390	0.597070
H1671	H167	0.673500	0.903500	0.604700
C2971	C297	0.507980	0.790790	0.674610
C2981	C298	0.598910	0.899050	0.608870
C2991	C299	0.539720	0.886500	0.620640
H1681	H168	0.516100	0.892600	0.620400
C3001	C300	0.548880	0.856570	0.631900
C3011	C301	0.550640	0.757900	0.699520
H1691	H169	0.567900	0.764300	0.688500
C3021	C302	0.624590	0.922880	0.597790
C3031	C303	0.494660	0.759170	0.713120
H1701	H170	0.471200	0.765200	0.711200
C3041	C304	0.559610	0.737100	0.718790
H1711	H171	0.582000	0.727500	0.719600
C3051	C305	0.583040	0.849520	0.632420
H1721	H172	0.590900	0.828900	0.639600
C3061	C306	0.563750	0.909300	0.609170
H1731	H173	0.556500	0.930200	0.602100
N481	N48	0.643650	0.964680	0.575770
C3071	C307	0.218020	0.872590	0.555130
C3081	C308	0.184820	0.869360	0.564650
H1741	H174	0.165900	0.880300	0.557200
C3091	C309	0.179960	0.849560	0.585610
C3101	C310	0.224420	0.896360	0.533450
N491	N49	0.270540	0.820250	0.598590
C3111	C311	0.240940	0.836750	0.586490
C3121	C312	0.303260	0.831560	0.598740
H1751	H175	0.312200	0.851100	0.590800
C3131	C313	0.321260	0.808090	0.613130
N501	N50	0.296920	0.784300	0.621260
N511	N51	0.549170	0.679480	0.791070
C3141	C314	0.527660	0.697340	0.777270
H1761	H176	0.503800	0.700600	0.780000
C3151	C315	0.546080	0.709910	0.758730
N521	N52	0.580180	0.679400	0.781060
N531	N53	0.579030	0.697500	0.761340
O771	O77	0.198630	0.911810	0.525220
O781	O78	0.255200	0.898200	0.525540
C3161	C316	0.511270	0.662050	0.824190
H1771	H177	0.492900	0.673900	0.816700
C3171	C317	0.571980	0.645130	0.824510
H1781	H178	0.594000	0.645900	0.817300
C3181	C318	0.543530	0.661550	0.813810
C3191	C319	0.534110	0.627220	0.856880
H1791	H179	0.530700	0.615300	0.871400
C3201	C320	0.566640	0.627540	0.846310
C3211	C321	0.505840	0.644740	0.845990
C3221	C322	0.144070	0.847990	0.597920
C3231	C323	0.471190	0.646440	0.858770
C3241	C324	0.597840	0.611360	0.858790
N541	N54	0.266300	0.792490	0.612580
O791	O79	0.467550	0.627750	0.877420
O801	O80	0.120410	0.864890	0.586900
O811	O81	0.142190	0.831100	0.616650
O821	O82	0.590750	0.595200	0.878010
O831	O83	0.447980	0.665140	0.849380
O841	O84	0.626430	0.613840	0.848590
H1801	H180	0.365100	0.796900	0.606900
C3251	C325	0.253720	0.644650	0.065780
H1811	H181	0.231500	0.643500	0.058800
C3261	C326	0.292300	0.667450	0.096380
H1821	H182	0.295700	0.681500	0.110000
C3271	C327	0.142930	0.691510	0.121770
C3281	C328	0.121370	0.662810	0.117090
H1831	H183	0.130000	0.642600	0.109800
C3291	C329	0.129970	0.717700	0.135260
H1841	H184	0.144200	0.736300	0.139800
C3301	C330	0.086380	0.665670	0.123790
H1851	H185	0.071000	0.648600	0.118100
C3311	C331	0.094320	0.716800	0.142610
H1861	H186	0.085500	0.735600	0.151400
C3321	C332	0.073390	0.690830	0.137630
C3331	C333	0.036570	0.690390	0.146300
C3341	C334	0.026880	0.710180	0.166610
H1871	H187	0.043400	0.723800	0.174700
C3351	C335	0.011840	0.668020	0.135500
H1881	H188	0.018600	0.653800	0.122600
Zn131	Zn13	0.628310	0.574210	0.102130
Zn141	Zn14	0.670510	0.598860	0.136180
O851	O85	0.704230	0.618890	0.164020
H1891	H189	0.696400	0.637500	0.169000
O861	O86	0.594480	0.553330	0.074310
H1901	H190	0.600200	0.533100	0.071300
O871	O87	0.707520	0.581090	0.115290
O881	O88	0.717970	0.480980	0.025330
O891	O89	0.671650	0.558110	0.087570
O901	O90	0.775200	0.467410	0.024940
C3361	C336	0.727030	0.525470	0.063770
H1911	H191	0.704300	0.519800	0.059100
C3371	C337	0.701370	0.563110	0.096400
N551	N55	0.828910	0.553430	0.083390
C3381	C338	0.755230	0.510570	0.051820
C3391	C339	0.749120	0.483390	0.032030
C3401	C340	0.789020	0.519470	0.058190
H1921	H192	0.808000	0.509800	0.050000
C3411	C341	0.732630	0.548760	0.082640
C3421	C342	0.891750	0.626240	0.121820
H1931	H193	0.868000	0.629700	0.124800
N561	N56	0.884210	0.550370	0.084000
C3431	C343	0.963960	0.769690	0.236930
C3441	C344	0.766370	0.558040	0.089340
H1941	H194	0.770200	0.573900	0.101900
C3451	C345	0.794200	0.543200	0.077000
C3461	C346	0.982160	0.730890	0.196090
C3471	C347	0.977050	0.666860	0.143800
C3481	C348	0.967950	0.687770	0.162810
H1951	H195	0.944800	0.687700	0.168100
C3491	C349	0.995200	0.759930	0.233510
H1961	H196	0.012100	0.765700	0.245000
C3501	C350	0.840220	0.579610	0.097070
H1971	H197	0.826500	0.596500	0.104700
C3511	C351	0.992020	0.709210	0.174610
C3521	C352	0.901090	0.600950	0.108870
C3531	C353	0.960280	0.613500	0.120640
H1981	H198	0.983900	0.607400	0.120400
C3541	C354	0.951120	0.643430	0.131900
C3551	C355	0.949360	0.742100	0.199520
H1991	H199	0.932100	0.735700	0.188500
C3561	C356	0.875410	0.577120	0.097790
C3571	C357	0.005340	0.740830	0.213120
H2001	H200	0.028800	0.734800	0.211200
C3581	C358	0.940390	0.762900	0.218790
H2011	H201	0.918000	0.772500	0.219600
C3591	C359	0.916960	0.650480	0.132420
H2021	H202	0.909100	0.671100	0.139600
C3601	C360	0.936250	0.590700	0.109170
H2031	H203	0.943500	0.569800	0.102100
N571	N57	0.856350	0.535320	0.075770
C3611	C361	0.281980	0.627410	0.055130
C3621	C362	0.315180	0.630640	0.064650
H2041	H204	0.334100	0.619700	0.057200
C3631	C363	0.320040	0.650440	0.085610
C3641	C364	0.275580	0.603640	0.033450
N581	N58	0.229460	0.679750	0.098590
C3651	C365	0.259060	0.663250	0.086490
C3661	C366	0.196740	0.668440	0.098740
H2051	H205	0.187800	0.648900	0.090800
C3671	C367	0.178740	0.691910	0.113130
N591	N59	0.203080	0.715700	0.121260
N601	N60	0.950830	0.820520	0.291070
C3681	C368	0.972340	0.802660	0.277270
H2061	H206	0.996200	0.799400	0.280000
C3691	C369	0.953920	0.790090	0.258730
N611	N61	0.919820	0.820600	0.281060
N621	N62	0.920970	0.802500	0.261340
O911	O91	0.301370	0.588190	0.025220
O921	O92	0.244800	0.601800	0.025540
C3701	C370	0.988730	0.837950	0.324190
H2071	H207	0.007100	0.826100	0.316700
C3711	C371	0.928020	0.854870	0.324510
H2081	H208	0.906000	0.854100	0.317300
C3721	C372	0.956470	0.838450	0.313810
C3731	C373	0.965890	0.872780	0.356880
H2091	H209	0.969300	0.884700	0.371400
C3741	C374	0.933360	0.872460	0.346310
C3751	C375	0.994160	0.855260	0.345990
C3761	C376	0.355930	0.652010	0.097920
C3771	C377	0.028810	0.853560	0.358770
C3781	C378	0.902160	0.888640	0.358790
N631	N63	0.233700	0.707510	0.112580
O931	O93	0.032450	0.872250	0.377420
O941	O94	0.379590	0.635110	0.086900
O951	O95	0.357810	0.668900	0.116650
O961	O96	0.909250	0.904800	0.378010
O971	O97	0.052020	0.834860	0.349380
O981	O98	0.873570	0.886160	0.348590
H2101	H210	0.134900	0.703100	0.106900
C3791	C379	0.753720	0.144650	0.565780
H2111	H211	0.731500	0.143500	0.558800
C3801	C380	0.792300	0.167450	0.596380
H2121	H212	0.795700	0.181500	0.610000
C3811	C381	0.642930	0.191510	0.621770
C3821	C382	0.621370	0.162810	0.617090
H2131	H213	0.630000	0.142600	0.609800
C3831	C383	0.629970	0.217700	0.635260
H2141	H214	0.644200	0.236300	0.639800
C3841	C384	0.586380	0.165670	0.623790
H2151	H215	0.571000	0.148600	0.618100
C3851	C385	0.594320	0.216800	0.642610
H2161	H216	0.585500	0.235600	0.651400
C3861	C386	0.573390	0.190830	0.637630
C3871	C387	0.536570	0.190390	0.646300
C3881	C388	0.526880	0.210180	0.666610
H2171	H217	0.543400	0.223800	0.674700
C3891	C389	0.511840	0.168020	0.635500
H2181	H218	0.518600	0.153800	0.622600
Zn151	Zn15	0.128310	0.074210	0.602130
Zn161	Zn16	0.170510	0.098860	0.636180
O991	O99	0.204230	0.118890	0.664020
H2191	H219	0.196400	0.137500	0.669000
O1001	O100	0.094480	0.053330	0.574310
H2201	H220	0.100200	0.033100	0.571300
O1011	O101	0.207520	0.081090	0.615290
O1021	O102	0.217970	0.980980	0.525330
O1031	O103	0.171650	0.058110	0.587570
O1041	O104	0.275200	0.967410	0.524940
C3901	C390	0.227030	0.025470	0.563770
H2211	H221	0.204300	0.019800	0.559100
C3911	C391	0.201370	0.063110	0.596400
N641	N64	0.328910	0.053430	0.583390
C3921	C392	0.255230	0.010570	0.551820
C3931	C393	0.249120	0.983390	0.532030
C3941	C394	0.289020	0.019470	0.558190
H2221	H222	0.308000	0.009800	0.550000
C3951	C395	0.232630	0.048760	0.582640
C3961	C396	0.391750	0.126240	0.621820
H2231	H223	0.368000	0.129700	0.624800
N651	N65	0.384210	0.050370	0.584000
C3971	C397	0.463960	0.269690	0.736930
C3981	C398	0.266370	0.058040	0.589340
H2241	H224	0.270200	0.073900	0.601900
C3991	C399	0.294200	0.043200	0.577000
C4001	C400	0.482160	0.230890	0.696090
C4011	C401	0.477050	0.166860	0.643800
C4021	C402	0.467950	0.187770	0.662810
H2251	H225	0.444800	0.187700	0.668100
C4031	C403	0.495200	0.259930	0.733510
H2261	H226	0.512100	0.265700	0.745000
C4041	C404	0.340220	0.079610	0.597070
H2271	H227	0.326500	0.096500	0.604700
C4051	C405	0.492020	0.209210	0.674610
C4061	C406	0.401090	0.100950	0.608870
C4071	C407	0.460280	0.113500	0.620640
H2281	H228	0.483900	0.107400	0.620400
C4081	C408	0.451120	0.143430	0.631900
C4091	C409	0.449360	0.242100	0.699520
H2291	H229	0.432100	0.235700	0.688500
C4101	C410	0.375410	0.077120	0.597790
C4111	C411	0.505340	0.240830	0.713120
H2301	H230	0.528800	0.234800	0.711200
C4121	C412	0.440390	0.262900	0.718790
H2311	H231	0.418000	0.272500	0.719600
C4131	C413	0.416960	0.150480	0.632420
H2321	H232	0.409100	0.171100	0.639600
C4141	C414	0.436250	0.090700	0.609170
H2331	H233	0.443500	0.069800	0.602100
N661	N66	0.356350	0.035320	0.575770
C4151	C415	0.781980	0.127410	0.555130
C4161	C416	0.815180	0.130640	0.564650
H2341	H234	0.834100	0.119700	0.557200
C4171	C417	0.820040	0.150440	0.585610
C4181	C418	0.775580	0.103640	0.533450
N671	N67	0.729460	0.179750	0.598590
C4191	C419	0.759060	0.163250	0.586490
C4201	C420	0.696740	0.168440	0.598740
H2351	H235	0.687800	0.148900	0.590800
C4211	C421	0.678740	0.191910	0.613130
N681	N68	0.703080	0.215700	0.621260
N691	N69	0.450830	0.320520	0.791070
C4221	C422	0.472340	0.302660	0.777270
H2361	H236	0.496200	0.299400	0.780000
C4231	C423	0.453920	0.290090	0.758730
N701	N70	0.419820	0.320600	0.781060
N711	N71	0.420970	0.302500	0.761340
O1051	O105	0.801370	0.088190	0.525220
O1061	O106	0.744800	0.101800	0.525540
C4241	C424	0.488730	0.337950	0.824190
H2371	H237	0.507100	0.326100	0.816700
C4251	C425	0.428020	0.354870	0.824510
H2381	H238	0.406000	0.354100	0.817300
C4261	C426	0.456470	0.338450	0.813810
C4271	C427	0.465890	0.372780	0.856880
H2391	H239	0.469300	0.384700	0.871400
C4281	C428	0.433360	0.372460	0.846310
C4291	C429	0.494160	0.355260	0.845990
C4301	C430	0.855930	0.152010	0.597920
C4311	C431	0.528810	0.353560	0.858770
C4321	C432	0.402160	0.388640	0.858790
N721	N72	0.733700	0.207510	0.612580
O1071	O107	0.532450	0.372250	0.877420
O1081	O108	0.879590	0.135110	0.586900
O1091	O109	0.857810	0.168900	0.616650
O1101	O110	0.409250	0.404800	0.878010
O1111	O111	0.552020	0.334860	0.849380
O1121	O112	0.373570	0.386160	0.848590
H2401	H240	0.634900	0.203100	0.606900
C4331	C433	0.644650	0.746280	0.934220
H2411	H241	0.643500	0.768500	0.941200
C4341	C434	0.667450	0.707700	0.903620
H2421	H242	0.681500	0.704300	0.890000
C4351	C435	0.691510	0.857070	0.878230
C4361	C436	0.662810	0.878630	0.882910
H2431	H243	0.642600	0.870000	0.890200
C4371	C437	0.717700	0.870030	0.864740
H2441	H244	0.736300	0.855800	0.860200
C4381	C438	0.665670	0.913620	0.876210
H2451	H245	0.648600	0.929000	0.881900
C4391	C439	0.716800	0.905680	0.857390
H2461	H246	0.735600	0.914500	0.848600
C4401	C440	0.690830	0.926610	0.862370
C4411	C441	0.690390	0.963430	0.853700
C4421	C442	0.710180	0.973120	0.833390
H2471	H247	0.723800	0.956600	0.825300
C4431	C443	0.668020	0.988160	0.864500
H2481	H248	0.653800	0.981400	0.877400
Zn171	Zn17	0.574210	0.371690	0.897870
Zn181	Zn18	0.598860	0.329490	0.863820
O1131	O113	0.618890	0.295770	0.835980
H2491	H249	0.637500	0.303600	0.831000
O1141	O114	0.553330	0.405520	0.925690
H2501	H250	0.533100	0.399800	0.928700
O1151	O115	0.581090	0.292480	0.884710
O1161	O116	0.480980	0.282030	0.974670
O1171	O117	0.558110	0.328350	0.912430
O1181	O118	0.467410	0.224800	0.975060
C4441	C444	0.525470	0.272970	0.936230
H2511	H251	0.519800	0.295700	0.940900
C4451	C445	0.563110	0.298630	0.903600
N731	N73	0.553430	0.171090	0.916610
C4461	C446	0.510570	0.244770	0.948180
C4471	C447	0.483390	0.250880	0.967970
C4481	C448	0.519470	0.210980	0.941810
H2521	H252	0.509800	0.192000	0.950000
C4491	C449	0.548760	0.267370	0.917360
C4501	C450	0.626240	0.108250	0.878180
H2531	H253	0.629700	0.132000	0.875200
N741	N74	0.550370	0.115790	0.916000
C4511	C451	0.769690	0.036040	0.763070
C4521	C452	0.558040	0.233630	0.910660
H2541	H254	0.573900	0.229800	0.898100
C4531	C453	0.543200	0.205800	0.923000
C4541	C454	0.730890	0.017840	0.803910
C4551	C455	0.666860	0.022950	0.856200
C4561	C456	0.687770	0.032050	0.837190
H2551	H255	0.687700	0.055200	0.831900
C4571	C457	0.759930	0.004800	0.766490
H2561	H256	0.765700	0.987900	0.755000
C4581	C458	0.579610	0.159780	0.902930
H2571	H257	0.596500	0.173500	0.895300
C4591	C459	0.709210	0.007980	0.825390
C4601	C460	0.600950	0.098910	0.891130
C4611	C461	0.613500	0.039720	0.879360
H2581	H258	0.607400	0.016100	0.879600
C4621	C462	0.643430	0.048880	0.868100
C4631	C463	0.742100	0.050640	0.800480
H2591	H259	0.735700	0.067900	0.811500
C4641	C464	0.577120	0.124590	0.902210
C4651	C465	0.740830	0.994660	0.786880
H2601	H260	0.734800	0.971200	0.788800
C4661	C466	0.762900	0.059610	0.781210
H2611	H261	0.772500	0.082000	0.780400
C4671	C467	0.650480	0.083040	0.867580
H2621	H262	0.671100	0.090900	0.860400
C4681	C468	0.590700	0.063750	0.890830
H2631	H263	0.569800	0.056500	0.897900
N751	N75	0.535320	0.143650	0.924230
C4691	C469	0.627410	0.718020	0.944870
C4701	C470	0.630640	0.684820	0.935350
H2641	H264	0.619700	0.665900	0.942800
C4711	C471	0.650440	0.679960	0.914390
C4721	C472	0.603640	0.724420	0.966550
N761	N76	0.679750	0.770540	0.901410
C4731	C473	0.663250	0.740940	0.913510
C4741	C474	0.668440	0.803260	0.901260
H2651	H265	0.648900	0.812200	0.909200
C4751	C475	0.691910	0.821260	0.886870
N771	N77	0.715700	0.796920	0.878740
N781	N78	0.820520	0.049170	0.708930
C4761	C476	0.802660	0.027660	0.722730
H2661	H266	0.799400	0.003800	0.720000
C4771	C477	0.790090	0.046080	0.741270
N791	N79	0.820600	0.080180	0.718940
N801	N80	0.802500	0.079030	0.738660
O1191	O119	0.588190	0.698630	0.974780
O1201	O120	0.601800	0.755200	0.974460
C4781	C478	0.837950	0.011270	0.675810
H2671	H267	0.826100	0.992900	0.683300
C4791	C479	0.854870	0.071980	0.675490
H2681	H268	0.854100	0.094000	0.682700
C4801	C480	0.838450	0.043530	0.686190
C4811	C481	0.872780	0.034110	0.643120
H2691	H269	0.884700	0.030700	0.628600
C4821	C482	0.872460	0.066640	0.653690
C4831	C483	0.855260	0.005840	0.654010
C4841	C484	0.652010	0.644070	0.902080
C4851	C485	0.853560	0.971190	0.641230
C4861	C486	0.888640	0.097840	0.641210
N811	N81	0.707510	0.766300	0.887420
O1211	O121	0.872250	0.967550	0.622580
O1221	O122	0.635110	0.620410	0.913100
O1231	O123	0.668900	0.642190	0.883350
O1241	O124	0.904800	0.090750	0.621990
O1251	O125	0.834860	0.947980	0.650620
O1261	O126	0.886160	0.126430	0.651410
H2701	H270	0.703100	0.865100	0.893100
C4871	C487	0.144650	0.246280	0.434220
H2711	H271	0.143500	0.268500	0.441200
C4881	C488	0.167450	0.207700	0.403620
H2721	H272	0.181500	0.204300	0.390000
C4891	C489	0.191510	0.357070	0.378230
C4901	C490	0.162810	0.378630	0.382910
H2731	H273	0.142600	0.370000	0.390200
C4911	C491	0.217700	0.370030	0.364740
H2741	H274	0.236300	0.355800	0.360200
C4921	C492	0.165670	0.413620	0.376210
H2751	H275	0.148600	0.429000	0.381900
C4931	C493	0.216800	0.405680	0.357390
H2761	H276	0.235600	0.414500	0.348600
C4941	C494	0.190830	0.426610	0.362370
C4951	C495	0.190390	0.463430	0.353700
C4961	C496	0.210180	0.473120	0.333390
H2771	H277	0.223800	0.456600	0.325300
C4971	C497	0.168020	0.488160	0.364500
H2781	H278	0.153800	0.481400	0.377400
Zn191	Zn19	0.074210	0.871690	0.397870
Zn201	Zn20	0.098860	0.829490	0.363820
O1271	O127	0.118890	0.795770	0.335980
H2791	H279	0.137500	0.803600	0.331000
O1281	O128	0.053330	0.905520	0.425690
H2801	H280	0.033100	0.899800	0.428700
O1291	O129	0.081090	0.792480	0.384710
O1301	O130	0.980980	0.782030	0.474670
O1311	O131	0.058110	0.828350	0.412430
O1321	O132	0.967410	0.724800	0.475060
C4981	C498	0.025470	0.772970	0.436230
H2811	H281	0.019800	0.795700	0.440900
C4991	C499	0.063110	0.798630	0.403600
N821	N82	0.053430	0.671090	0.416610
C5001	C500	0.010570	0.744770	0.448180
C5011	C501	0.983390	0.750880	0.467970
C5021	C502	0.019470	0.710980	0.441810
H2821	H282	0.009800	0.692000	0.450000
C5031	C503	0.048760	0.767370	0.417360
C5041	C504	0.126240	0.608250	0.378180
H2831	H283	0.129700	0.632000	0.375200
N831	N83	0.050370	0.615790	0.416000
C5051	C505	0.269690	0.536040	0.263070
C5061	C506	0.058040	0.733630	0.410660
H2841	H284	0.073900	0.729800	0.398100
C5071	C507	0.043200	0.705800	0.423000
C5081	C508	0.230890	0.517840	0.303910
C5091	C509	0.166860	0.522950	0.356200
C5101	C510	0.187770	0.532050	0.337190
H2851	H285	0.187700	0.555200	0.331900
C5111	C511	0.259930	0.504800	0.266490
H2861	H286	0.265700	0.487900	0.255000
C5121	C512	0.079610	0.659780	0.402930
H2871	H287	0.096500	0.673500	0.395300
C5131	C513	0.209210	0.507980	0.325390
C5141	C514	0.100950	0.598910	0.391130
C5151	C515	0.113500	0.539720	0.379360
H2881	H288	0.107400	0.516100	0.379600
C5161	C516	0.143430	0.548880	0.368100
C5171	C517	0.242100	0.550640	0.300480
H2891	H289	0.235700	0.567900	0.311500
C5181	C518	0.077120	0.624590	0.402210
C5191	C519	0.240830	0.494660	0.286880
H2901	H290	0.234800	0.471200	0.288800
C5201	C520	0.262900	0.559610	0.281210
H2911	H291	0.272500	0.582000	0.280400
C5211	C521	0.150480	0.583040	0.367580
H2921	H292	0.171100	0.590900	0.360400
C5221	C522	0.090700	0.563750	0.390830
H2931	H293	0.069800	0.556500	0.397900
N841	N84	0.035320	0.643650	0.424230
C5231	C523	0.127410	0.218020	0.444870
C5241	C524	0.130640	0.184820	0.435350
H2941	H294	0.119700	0.165900	0.442800
C5251	C525	0.150440	0.179960	0.414390
C5261	C526	0.103640	0.224420	0.466550
N851	N85	0.179750	0.270540	0.401410
C5271	C527	0.163250	0.240940	0.413510
C5281	C528	0.168440	0.303260	0.401260
H2951	H295	0.148900	0.312200	0.409200
C5291	C529	0.191910	0.321260	0.386870
N861	N86	0.215700	0.296920	0.378740
N871	N87	0.320520	0.549170	0.208930
C5301	C530	0.302660	0.527660	0.222730
H2961	H296	0.299400	0.503800	0.220000
C5311	C531	0.290090	0.546080	0.241270
N881	N88	0.320600	0.580180	0.218940
N891	N89	0.302500	0.579030	0.238660
O1331	O133	0.088190	0.198630	0.474780
O1341	O134	0.101800	0.255200	0.474460
C5321	C532	0.337950	0.511270	0.175810
H2971	H297	0.326100	0.492900	0.183300
C5331	C533	0.354870	0.571980	0.175490
H2981	H298	0.354100	0.594000	0.182700
C5341	C534	0.338450	0.543530	0.186190
C5351	C535	0.372780	0.534110	0.143120
H2991	H299	0.384700	0.530700	0.128600
C5361	C536	0.372460	0.566640	0.153690
C5371	C537	0.355260	0.505840	0.154010
C5381	C538	0.152010	0.144070	0.402080
C5391	C539	0.353560	0.471190	0.141230
C5401	C540	0.388640	0.597840	0.141210
N901	N90	0.207510	0.266300	0.387420
O1351	O135	0.372250	0.467550	0.122580
O1361	O136	0.135110	0.120410	0.413100
O1371	O137	0.168900	0.142190	0.383350
O1381	O138	0.404800	0.590750	0.121990
O1391	O139	0.334860	0.447980	0.150620
O1401	O140	0.386160	0.626430	0.151410
H3001	H300	0.203100	0.365100	0.393100
C5411	C541	0.355350	0.253720	0.934220
H3011	H301	0.356500	0.231500	0.941200
C5421	C542	0.332550	0.292300	0.903620
H3021	H302	0.318500	0.295700	0.890000
C5431	C543	0.308490	0.142930	0.878230
C5441	C544	0.337190	0.121370	0.882910
H3031	H303	0.357400	0.130000	0.890200
C5451	C545	0.282300	0.129970	0.864740
H3041	H304	0.263700	0.144200	0.860200
C5461	C546	0.334330	0.086380	0.876210
H3051	H305	0.351400	0.071000	0.881900
C5471	C547	0.283200	0.094320	0.857390
H3061	H306	0.264400	0.085500	0.848600
C5481	C548	0.309170	0.073390	0.862370
C5491	C549	0.309610	0.036570	0.853700
C5501	C550	0.289820	0.026880	0.833390
H3071	H307	0.276200	0.043400	0.825300
C5511	C551	0.331980	0.011840	0.864500
H3081	H308	0.346200	0.018600	0.877400
Zn211	Zn21	0.425790	0.628310	0.897870
Zn221	Zn22	0.401140	0.670510	0.863820
O1411	O141	0.381110	0.704230	0.835980
H3091	H309	0.362500	0.696400	0.831000
O1421	O142	0.446670	0.594480	0.925690
H3101	H310	0.466900	0.600200	0.928700
O1431	O143	0.418910	0.707520	0.884710
O1441	O144	0.519020	0.717970	0.974670
O1451	O145	0.441890	0.671650	0.912430
O1461	O146	0.532590	0.775200	0.975060
C5521	C552	0.474530	0.727030	0.936230
H3111	H311	0.480200	0.704300	0.940900
C5531	C553	0.436890	0.701370	0.903600
N911	N91	0.446570	0.828910	0.916610
C5541	C554	0.489430	0.755230	0.948180
C5551	C555	0.516610	0.749120	0.967970
C5561	C556	0.480530	0.789020	0.941810
H3121	H312	0.490200	0.808000	0.950000
C5571	C557	0.451240	0.732630	0.917360
C5581	C558	0.373760	0.891750	0.878180
H3131	H313	0.370300	0.868000	0.875200
N921	N92	0.449630	0.884210	0.916000
C5591	C559	0.230310	0.963960	0.763070
C5601	C560	0.441960	0.766370	0.910660
H3141	H314	0.426100	0.770200	0.898100
C5611	C561	0.456800	0.794200	0.923000
C5621	C562	0.269110	0.982160	0.803910
C5631	C563	0.333140	0.977050	0.856200
C5641	C564	0.312230	0.967950	0.837190
H3151	H315	0.312300	0.944800	0.831900
C5651	C565	0.240070	0.995200	0.766490
H3161	H316	0.234300	0.012100	0.755000
C5661	C566	0.420390	0.840220	0.902930
H3171	H317	0.403500	0.826500	0.895300
C5671	C567	0.290790	0.992020	0.825390
C5681	C568	0.399050	0.901090	0.891130
C5691	C569	0.386500	0.960280	0.879360
H3181	H318	0.392600	0.983900	0.879600
C5701	C570	0.356570	0.951120	0.868100
C5711	C571	0.257900	0.949360	0.800480
H3191	H319	0.264300	0.932100	0.811500
C5721	C572	0.422880	0.875410	0.902210
C5731	C573	0.259170	0.005340	0.786880
H3201	H320	0.265200	0.028800	0.788800
C5741	C574	0.237100	0.940390	0.781210
H3211	H321	0.227500	0.918000	0.780400
C5751	C575	0.349520	0.916960	0.867580
H3221	H322	0.328900	0.909100	0.860400
C5761	C576	0.409300	0.936250	0.890830
H3231	H323	0.430200	0.943500	0.897900
N931	N93	0.464680	0.856350	0.924230
C5771	C577	0.372590	0.281980	0.944870
C5781	C578	0.369360	0.315180	0.935350
H3241	H324	0.380300	0.334100	0.942800
C5791	C579	0.349560	0.320040	0.914390
C5801	C580	0.396360	0.275580	0.966550
N941	N94	0.320250	0.229460	0.901410
C5811	C581	0.336750	0.259060	0.913510
C5821	C582	0.331560	0.196740	0.901260
H3251	H325	0.351100	0.187800	0.909200
C5831	C583	0.308090	0.178740	0.886870
N951	N95	0.284300	0.203080	0.878740
N961	N96	0.179480	0.950830	0.708930
C5841	C584	0.197340	0.972340	0.722730
H3261	H326	0.200600	0.996200	0.720000
C5851	C585	0.209910	0.953920	0.741270
N971	N97	0.179400	0.919820	0.718940
N981	N98	0.197500	0.920970	0.738660
O1471	O147	0.411810	0.301370	0.974780
O1481	O148	0.398200	0.244800	0.974460
C5861	C586	0.162050	0.988730	0.675810
H3271	H327	0.173900	0.007100	0.683300
C5871	C587	0.145130	0.928020	0.675490
H3281	H328	0.145900	0.906000	0.682700
C5881	C588	0.161550	0.956470	0.686190
C5891	C589	0.127220	0.965890	0.643120
H3291	H329	0.115300	0.969300	0.628600
C5901	C590	0.127540	0.933360	0.653690
C5911	C591	0.144740	0.994160	0.654010
C5921	C592	0.347990	0.355930	0.902080
C5931	C593	0.146440	0.028810	0.641230
C5941	C594	0.111360	0.902160	0.641210
N991	N99	0.292490	0.233700	0.887420
O1491	O149	0.127750	0.032450	0.622580
O1501	O150	0.364890	0.379590	0.913100
O1511	O151	0.331100	0.357810	0.883350
O1521	O152	0.095200	0.909250	0.621990
O1531	O153	0.165140	0.052020	0.650620
O1541	O154	0.113840	0.873570	0.651410
H3301	H330	0.296900	0.134900	0.893100
C5951	C595	0.855350	0.753720	0.434220
H3311	H331	0.856500	0.731500	0.441200
C5961	C596	0.832550	0.792300	0.403620
H3321	H332	0.818500	0.795700	0.390000
C5971	C597	0.808490	0.642930	0.378230
C5981	C598	0.837190	0.621370	0.382910
H3331	H333	0.857400	0.630000	0.390200
C5991	C599	0.782300	0.629970	0.364740
H3341	H334	0.763700	0.644200	0.360200
C6001	C600	0.834330	0.586380	0.376210
H3351	H335	0.851400	0.571000	0.381900
C6011	C601	0.783200	0.594320	0.357390
H3361	H336	0.764400	0.585500	0.348600
C6021	C602	0.809170	0.573390	0.362370
C6031	C603	0.809610	0.536570	0.353700
C6041	C604	0.789820	0.526880	0.333390
H3371	H337	0.776200	0.543400	0.325300
C6051	C605	0.831980	0.511840	0.364500
H3381	H338	0.846200	0.518600	0.377400
Zn231	Zn23	0.925790	0.128310	0.397870
Zn241	Zn24	0.901140	0.170510	0.363820
O1551	O155	0.881110	0.204230	0.335980
H3391	H339	0.862500	0.196400	0.331000
O1561	O156	0.946670	0.094480	0.425690
H3401	H340	0.966900	0.100200	0.428700
O1571	O157	0.918910	0.207520	0.384710
O1581	O158	0.019020	0.217970	0.474670
O1591	O159	0.941890	0.171650	0.412430
O1601	O160	0.032590	0.275200	0.475060
C6061	C606	0.974530	0.227030	0.436230
H3411	H341	0.980200	0.204300	0.440900
C6071	C607	0.936890	0.201370	0.403600
N1001	N100	0.946570	0.328910	0.416610
C6081	C608	0.989430	0.255230	0.448180
C6091	C609	0.016610	0.249120	0.467970
C6101	C610	0.980530	0.289020	0.441810
H3421	H342	0.990200	0.308000	0.450000
C6111	C611	0.951240	0.232630	0.417360
C6121	C612	0.873760	0.391750	0.378180
H3431	H343	0.870300	0.368000	0.375200
N1011	N101	0.949630	0.384210	0.416000
C6131	C613	0.730310	0.463960	0.263070
C6141	C614	0.941960	0.266370	0.410660
H3441	H344	0.926100	0.270200	0.398100
C6151	C615	0.956800	0.294200	0.423000
C6161	C616	0.769110	0.482160	0.303910
C6171	C617	0.833140	0.477050	0.356200
C6181	C618	0.812230	0.467950	0.337190
H3451	H345	0.812300	0.444800	0.331900
C6191	C619	0.740070	0.495200	0.266490
H3461	H346	0.734300	0.512100	0.255000
C6201	C620	0.920390	0.340220	0.402930
H3471	H347	0.903500	0.326500	0.395300
C6211	C621	0.790790	0.492020	0.325390
C6221	C622	0.899050	0.401090	0.391130
C6231	C623	0.886500	0.460280	0.379360
H3481	H348	0.892600	0.483900	0.379600
C6241	C624	0.856570	0.451120	0.368100
C6251	C625	0.757900	0.449360	0.300480
H3491	H349	0.764300	0.432100	0.311500
C6261	C626	0.922880	0.375410	0.402210
C6271	C627	0.759170	0.505340	0.286880
H3501	H350	0.765200	0.528800	0.288800
C6281	C628	0.737100	0.440390	0.281210
H3511	H351	0.727500	0.418000	0.280400
C6291	C629	0.849520	0.416960	0.367580
H3521	H352	0.828900	0.409100	0.360400
C6301	C630	0.909300	0.436250	0.390830
H3531	H353	0.930200	0.443500	0.397900
N1021	N102	0.964680	0.356350	0.424230
C6311	C631	0.872590	0.781980	0.444870
C6321	C632	0.869360	0.815180	0.435350
H3541	H354	0.880300	0.834100	0.442800
C6331	C633	0.849560	0.820040	0.414390
C6341	C634	0.896360	0.775580	0.466550
N1031	N103	0.820250	0.729460	0.401410
C6351	C635	0.836750	0.759060	0.413510
C6361	C636	0.831560	0.696740	0.401260
H3551	H355	0.851100	0.687800	0.409200
C6371	C637	0.808090	0.678740	0.386870
N1041	N104	0.784300	0.703080	0.378740
N1051	N105	0.679480	0.450830	0.208930
C6381	C638	0.697340	0.472340	0.222730
H3561	H356	0.700600	0.496200	0.220000
C6391	C639	0.709910	0.453920	0.241270
N1061	N106	0.679400	0.419820	0.218940
N1071	N107	0.697500	0.420970	0.238660
O1611	O161	0.911810	0.801370	0.474780
O1621	O162	0.898200	0.744800	0.474460
C6401	C640	0.662050	0.488730	0.175810
H3571	H357	0.673900	0.507100	0.183300
C6411	C641	0.645130	0.428020	0.175490
H3581	H358	0.645900	0.406000	0.182700
C6421	C642	0.661550	0.456470	0.186190
C6431	C643	0.627220	0.465890	0.143120
H3591	H359	0.615300	0.469300	0.128600
C6441	C644	0.627540	0.433360	0.153690
C6451	C645	0.644740	0.494160	0.154010
C6461	C646	0.847990	0.855930	0.402080
C6471	C647	0.646440	0.528810	0.141230
C6481	C648	0.611360	0.402160	0.141210
N1081	N108	0.792490	0.733700	0.387420
O1631	O163	0.627750	0.532450	0.122580
O1641	O164	0.864890	0.879590	0.413100
O1651	O165	0.831100	0.857810	0.383350
O1661	O166	0.595200	0.409250	0.121990
O1671	O167	0.665140	0.552020	0.150620
O1681	O168	0.613840	0.373570	0.151410
H3601	H360	0.796900	0.634900	0.393100
C6491	C649	0.253720	0.644650	0.934220
H3611	H361	0.231500	0.643500	0.941200
C6501	C650	0.292300	0.667450	0.903620
H3621	H362	0.295700	0.681500	0.890000
C6511	C651	0.142930	0.691510	0.878230
C6521	C652	0.121370	0.662810	0.882910
H3631	H363	0.130000	0.642600	0.890200
C6531	C653	0.129970	0.717700	0.864740
H3641	H364	0.144200	0.736300	0.860200
C6541	C654	0.086380	0.665670	0.876210
H3651	H365	0.071000	0.648600	0.881900
C6551	C655	0.094320	0.716800	0.857390
H3661	H366	0.085500	0.735600	0.848600
C6561	C656	0.073390	0.690830	0.862370
C6571	C657	0.036570	0.690390	0.853700
C6581	C658	0.026880	0.710180	0.833390
H3671	H367	0.043400	0.723800	0.825300
C6591	C659	0.011840	0.668020	0.864500
H3681	H368	0.018600	0.653800	0.877400
Zn251	Zn25	0.628310	0.574210	0.897870
Zn261	Zn26	0.670510	0.598860	0.863820
O1691	O169	0.704230	0.618890	0.835980
H3691	H369	0.696400	0.637500	0.831000
O1701	O170	0.594480	0.553330	0.925690
H3701	H370	0.600200	0.533100	0.928700
O1711	O171	0.707520	0.581090	0.884710
O1721	O172	0.717970	0.480980	0.974670
O1731	O173	0.671650	0.558110	0.912430
O1741	O174	0.775200	0.467410	0.975060
C6601	C660	0.727030	0.525470	0.936230
H3711	H371	0.704300	0.519800	0.940900
C6611	C661	0.701370	0.563110	0.903600
N1091	N109	0.828910	0.553430	0.916610
C6621	C662	0.755230	0.510570	0.948180
C6631	C663	0.749120	0.483390	0.967970
C6641	C664	0.789020	0.519470	0.941810
H3721	H372	0.808000	0.509800	0.950000
C6651	C665	0.732630	0.548760	0.917360
C6661	C666	0.891750	0.626240	0.878180
H3731	H373	0.868000	0.629700	0.875200
N1101	N110	0.884210	0.550370	0.916000
C6671	C667	0.963960	0.769690	0.763070
C6681	C668	0.766370	0.558040	0.910660
H3741	H374	0.770200	0.573900	0.898100
C6691	C669	0.794200	0.543200	0.923000
C6701	C670	0.982160	0.730890	0.803910
C6711	C671	0.977050	0.666860	0.856200
C6721	C672	0.967950	0.687770	0.837190
H3751	H375	0.944800	0.687700	0.831900
C6731	C673	0.995200	0.759930	0.766490
H3761	H376	0.012100	0.765700	0.755000
C6741	C674	0.840220	0.579610	0.902930
H3771	H377	0.826500	0.596500	0.895300
C6751	C675	0.992020	0.709210	0.825390
C6761	C676	0.901090	0.600950	0.891130
C6771	C677	0.960280	0.613500	0.879360
H3781	H378	0.983900	0.607400	0.879600
C6781	C678	0.951120	0.643430	0.868100
C6791	C679	0.949360	0.742100	0.800480
H3791	H379	0.932100	0.735700	0.811500
C6801	C680	0.875410	0.577120	0.902210
C6811	C681	0.005340	0.740830	0.786880
H3801	H380	0.028800	0.734800	0.788800
C6821	C682	0.940390	0.762900	0.781210
H3811	H381	0.918000	0.772500	0.780400
C6831	C683	0.916960	0.650480	0.867580
H3821	H382	0.909100	0.671100	0.860400
C6841	C684	0.936250	0.590700	0.890830
H3831	H383	0.943500	0.569800	0.897900
N1111	N111	0.856350	0.535320	0.924230
C6851	C685	0.281980	0.627410	0.944870
C6861	C686	0.315180	0.630640	0.935350
H3841	H384	0.334100	0.619700	0.942800
C6871	C687	0.320040	0.650440	0.914390
C6881	C688	0.275580	0.603640	0.966550
N1121	N112	0.229460	0.679750	0.901410
C6891	C689	0.259060	0.663250	0.913510
C6901	C690	0.196740	0.668440	0.901260
H3851	H385	0.187800	0.648900	0.909200
C6911	C691	0.178740	0.691910	0.886870
N1131	N113	0.203080	0.715700	0.878740
N1141	N114	0.950830	0.820520	0.708930
C6921	C692	0.972340	0.802660	0.722730
H3861	H386	0.996200	0.799400	0.720000
C6931	C693	0.953920	0.790090	0.741270
N1151	N115	0.919820	0.820600	0.718940
N1161	N116	0.920970	0.802500	0.738660
O1751	O175	0.301370	0.588190	0.974780
O1761	O176	0.244800	0.601800	0.974460
C6941	C694	0.988730	0.837950	0.675810
H3871	H387	0.007100	0.826100	0.683300
C6951	C695	0.928020	0.854870	0.675490
H3881	H388	0.906000	0.854100	0.682700
C6961	C696	0.956470	0.838450	0.686190
C6971	C697	0.965890	0.872780	0.643120
H3891	H389	0.969300	0.884700	0.628600
C6981	C698	0.933360	0.872460	0.653690
C6991	C699	0.994160	0.855260	0.654010
C7001	C700	0.355930	0.652010	0.902080
C7011	C701	0.028810	0.853560	0.641230
C7021	C702	0.902160	0.888640	0.641210
N1171	N117	0.233700	0.707510	0.887420
O1771	O177	0.032450	0.872250	0.622580
O1781	O178	0.379590	0.635110	0.913100
O1791	O179	0.357810	0.668900	0.883350
O1801	O180	0.909250	0.904800	0.621990
O1811	O181	0.052020	0.834860	0.650620
O1821	O182	0.873570	0.886160	0.651410
H3901	H390	0.134900	0.703100	0.893100
C7031	C703	0.753720	0.144650	0.434220
H3911	H391	0.731500	0.143500	0.441200
C7041	C704	0.792300	0.167450	0.403620
H3921	H392	0.795700	0.181500	0.390000
C7051	C705	0.642930	0.191510	0.378230
C7061	C706	0.621370	0.162810	0.382910
H3931	H393	0.630000	0.142600	0.390200
C7071	C707	0.629970	0.217700	0.364740
H3941	H394	0.644200	0.236300	0.360200
C7081	C708	0.586380	0.165670	0.376210
H3951	H395	0.571000	0.148600	0.381900
C7091	C709	0.594320	0.216800	0.357390
H3961	H396	0.585500	0.235600	0.348600
C7101	C710	0.573390	0.190830	0.362370
C7111	C711	0.536570	0.190390	0.353700
C7121	C712	0.526880	0.210180	0.333390
H3971	H397	0.543400	0.223800	0.325300
C7131	C713	0.511840	0.168020	0.364500
H3981	H398	0.518600	0.153800	0.377400
Zn271	Zn27	0.128310	0.074210	0.397870
Zn281	Zn28	0.170510	0.098860	0.363820
O1831	O183	0.204230	0.118890	0.335980
H3991	H399	0.196400	0.137500	0.331000
O1841	O184	0.094480	0.053330	0.425690
H4001	H400	0.100200	0.033100	0.428700
O1851	O185	0.207520	0.081090	0.384710
O1861	O186	0.217970	0.980980	0.474670
O1871	O187	0.171650	0.058110	0.412430
O1881	O188	0.275200	0.967410	0.475060
C7141	C714	0.227030	0.025470	0.436230
H4011	H401	0.204300	0.019800	0.440900
C7151	C715	0.201370	0.063110	0.403600
N1181	N118	0.328910	0.053430	0.416610
C7161	C716	0.255230	0.010570	0.448180
C7171	C717	0.249120	0.983390	0.467970
C7181	C718	0.289020	0.019470	0.441810
H4021	H402	0.308000	0.009800	0.450000
C7191	C719	0.232630	0.048760	0.417360
C7201	C720	0.391750	0.126240	0.378180
H4031	H403	0.368000	0.129700	0.375200
N1191	N119	0.384210	0.050370	0.416000
C7211	C721	0.463960	0.269690	0.263070
C7221	C722	0.266370	0.058040	0.410660
H4041	H404	0.270200	0.073900	0.398100
C7231	C723	0.294200	0.043200	0.423000
C7241	C724	0.482160	0.230890	0.303910
C7251	C725	0.477050	0.166860	0.356200
C7261	C726	0.467950	0.187770	0.337190
H4051	H405	0.444800	0.187700	0.331900
C7271	C727	0.495200	0.259930	0.266490
H4061	H406	0.512100	0.265700	0.255000
C7281	C728	0.340220	0.079610	0.402930
H4071	H407	0.326500	0.096500	0.395300
C7291	C729	0.492020	0.209210	0.325390
C7301	C730	0.401090	0.100950	0.391130
C7311	C731	0.460280	0.113500	0.379360
H4081	H408	0.483900	0.107400	0.379600
C7321	C732	0.451120	0.143430	0.368100
C7331	C733	0.449360	0.242100	0.300480
H4091	H409	0.432100	0.235700	0.311500
C7341	C734	0.375410	0.077120	0.402210
C7351	C735	0.505340	0.240830	0.286880
H4101	H410	0.528800	0.234800	0.288800
C7361	C736	0.440390	0.262900	0.281210
H4111	H411	0.418000	0.272500	0.280400
C7371	C737	0.416960	0.150480	0.367580
H4121	H412	0.409100	0.171100	0.360400
C7381	C738	0.436250	0.090700	0.390830
H4131	H413	0.443500	0.069800	0.397900
N1201	N120	0.356350	0.035320	0.424230
C7391	C739	0.781980	0.127410	0.444870
C7401	C740	0.815180	0.130640	0.435350
H4141	H414	0.834100	0.119700	0.442800
C7411	C741	0.820040	0.150440	0.414390
C7421	C742	0.775580	0.103640	0.466550
N1211	N121	0.729460	0.179750	0.401410
C7431	C743	0.759060	0.163250	0.413510
C7441	C744	0.696740	0.168440	0.401260
H4151	H415	0.687800	0.148900	0.409200
C7451	C745	0.678740	0.191910	0.386870
N1221	N122	0.703080	0.215700	0.378740
N1231	N123	0.450830	0.320520	0.208930
C7461	C746	0.472340	0.302660	0.222730
H4161	H416	0.496200	0.299400	0.220000
C7471	C747	0.453920	0.290090	0.241270
N1241	N124	0.419820	0.320600	0.218940
N1251	N125	0.420970	0.302500	0.238660
O1891	O189	0.801370	0.088190	0.474780
O1901	O190	0.744800	0.101800	0.474460
C7481	C748	0.488730	0.337950	0.175810
H4171	H417	0.507100	0.326100	0.183300
C7491	C749	0.428020	0.354870	0.175490
H4181	H418	0.406000	0.354100	0.182700
C7501	C750	0.456470	0.338450	0.186190
C7511	C751	0.465890	0.372780	0.143120
H4191	H419	0.469300	0.384700	0.128600
C7521	C752	0.433360	0.372460	0.153690
C7531	C753	0.494160	0.355260	0.154010
C7541	C754	0.855930	0.152010	0.402080
C7551	C755	0.528810	0.353560	0.141230
C7561	C756	0.402160	0.388640	0.141210
N1261	N126	0.733700	0.207510	0.387420
O1911	O191	0.532450	0.372250	0.122580
O1921	O192	0.879590	0.135110	0.413100
O1931	O193	0.857810	0.168900	0.383350
O1941	O194	0.409250	0.404800	0.121990
O1951	O195	0.552020	0.334860	0.150620
O1961	O196	0.373570	0.386160	0.151410
H4201	H420	0.634900	0.203100	0.393100
C7571	C757	0.746280	0.355350	0.934220
H4211	H421	0.768500	0.356500	0.941200
C7581	C758	0.707700	0.332550	0.903620
H4221	H422	0.704300	0.318500	0.890000
C7591	C759	0.857070	0.308490	0.878230
C7601	C760	0.878630	0.337190	0.882910
H4231	H423	0.870000	0.357400	0.890200
C7611	C761	0.870030	0.282300	0.864740
H4241	H424	0.855800	0.263700	0.860200
C7621	C762	0.913620	0.334330	0.876210
H4251	H425	0.929000	0.351400	0.881900
C7631	C763	0.905680	0.283200	0.857390
H4261	H426	0.914500	0.264400	0.848600
C7641	C764	0.926610	0.309170	0.862370
C7651	C765	0.963430	0.309610	0.853700
C7661	C766	0.973120	0.289820	0.833390
H4271	H427	0.956600	0.276200	0.825300
C7671	C767	0.988160	0.331980	0.864500
H4281	H428	0.981400	0.346200	0.877400
Zn291	Zn29	0.371690	0.425790	0.897870
Zn301	Zn30	0.329490	0.401140	0.863820
O1971	O197	0.295770	0.381110	0.835980
H4291	H429	0.303600	0.362500	0.831000
O1981	O198	0.405520	0.446670	0.925690
H4301	H430	0.399800	0.466900	0.928700
O1991	O199	0.292480	0.418910	0.884710
O2001	O200	0.282030	0.519020	0.974670
O2011	O201	0.328350	0.441890	0.912430
O2021	O202	0.224800	0.532590	0.975060
C7681	C768	0.272970	0.474530	0.936230
H4311	H431	0.295700	0.480200	0.940900
C7691	C769	0.298630	0.436890	0.903600
N1271	N127	0.171090	0.446570	0.916610
C7701	C770	0.244770	0.489430	0.948180
C7711	C771	0.250880	0.516610	0.967970
C7721	C772	0.210980	0.480530	0.941810
H4321	H432	0.192000	0.490200	0.950000
C7731	C773	0.267370	0.451240	0.917360
C7741	C774	0.108250	0.373760	0.878180
H4331	H433	0.132000	0.370300	0.875200
N1281	N128	0.115790	0.449630	0.916000
C7751	C775	0.036040	0.230310	0.763070
C7761	C776	0.233630	0.441960	0.910660
H4341	H434	0.229800	0.426100	0.898100
C7771	C777	0.205800	0.456800	0.923000
C7781	C778	0.017840	0.269110	0.803910
C7791	C779	0.022950	0.333140	0.856200
C7801	C780	0.032050	0.312230	0.837190
H4351	H435	0.055200	0.312300	0.831900
C7811	C781	0.004800	0.240070	0.766490
H4361	H436	0.987900	0.234300	0.755000
C7821	C782	0.159780	0.420390	0.902930
H4371	H437	0.173500	0.403500	0.895300
C7831	C783	0.007980	0.290790	0.825390
C7841	C784	0.098910	0.399050	0.891130
C7851	C785	0.039720	0.386500	0.879360
H4381	H438	0.016100	0.392600	0.879600
C7861	C786	0.048880	0.356570	0.868100
C7871	C787	0.050640	0.257900	0.800480
H4391	H439	0.067900	0.264300	0.811500
C7881	C788	0.124590	0.422880	0.902210
C7891	C789	0.994660	0.259170	0.786880
H4401	H440	0.971200	0.265200	0.788800
C7901	C790	0.059610	0.237100	0.781210
H4411	H441	0.082000	0.227500	0.780400
C7911	C791	0.083040	0.349520	0.867580
H4421	H442	0.090900	0.328900	0.860400
C7921	C792	0.063750	0.409300	0.890830
H4431	H443	0.056500	0.430200	0.897900
N1291	N129	0.143650	0.464680	0.924230
C7931	C793	0.718020	0.372590	0.944870
C7941	C794	0.684820	0.369360	0.935350
H4441	H444	0.665900	0.380300	0.942800
C7951	C795	0.679960	0.349560	0.914390
C7961	C796	0.724420	0.396360	0.966550
N1301	N130	0.770540	0.320250	0.901410
C7971	C797	0.740940	0.336750	0.913510
C7981	C798	0.803260	0.331560	0.901260
H4451	H445	0.812200	0.351100	0.909200
C7991	C799	0.821260	0.308090	0.886870
N1311	N131	0.796920	0.284300	0.878740
N1321	N132	0.049170	0.179480	0.708930
C8001	C800	0.027660	0.197340	0.722730
H4461	H446	0.003800	0.200600	0.720000
C8011	C801	0.046080	0.209910	0.741270
N1331	N133	0.080180	0.179400	0.718940
N1341	N134	0.079030	0.197500	0.738660
O2031	O203	0.698630	0.411810	0.974780
O2041	O204	0.755200	0.398200	0.974460
C8021	C802	0.011270	0.162050	0.675810
H4471	H447	0.992900	0.173900	0.683300
C8031	C803	0.071980	0.145130	0.675490
H4481	H448	0.094000	0.145900	0.682700
C8041	C804	0.043530	0.161550	0.686190
C8051	C805	0.034110	0.127220	0.643120
H4491	H449	0.030700	0.115300	0.628600
C8061	C806	0.066640	0.127540	0.653690
C8071	C807	0.005840	0.144740	0.654010
C8081	C808	0.644070	0.347990	0.902080
C8091	C809	0.971190	0.146440	0.641230
C8101	C810	0.097840	0.111360	0.641210
N1351	N135	0.766300	0.292490	0.887420
O2051	O205	0.967550	0.127750	0.622580
O2061	O206	0.620410	0.364890	0.913100
O2071	O207	0.642190	0.331100	0.883350
O2081	O208	0.090750	0.095200	0.621990
O2091	O209	0.947980	0.165140	0.650620
O2101	O210	0.126430	0.113840	0.651410
H4501	H450	0.865100	0.296900	0.893100
C8111	C811	0.246280	0.855350	0.434220
H4511	H451	0.268500	0.856500	0.441200
C8121	C812	0.207700	0.832550	0.403620
H4521	H452	0.204300	0.818500	0.390000
C8131	C813	0.357070	0.808490	0.378230
C8141	C814	0.378630	0.837190	0.382910
H4531	H453	0.370000	0.857400	0.390200
C8151	C815	0.370030	0.782300	0.364740
H4541	H454	0.355800	0.763700	0.360200
C8161	C816	0.413620	0.834330	0.376210
H4551	H455	0.429000	0.851400	0.381900
C8171	C817	0.405680	0.783200	0.357390
H4561	H456	0.414500	0.764400	0.348600
C8181	C818	0.426610	0.809170	0.362370
C8191	C819	0.463430	0.809610	0.353700
C8201	C820	0.473120	0.789820	0.333390
H4571	H457	0.456600	0.776200	0.325300
C8211	C821	0.488160	0.831980	0.364500
H4581	H458	0.481400	0.846200	0.377400
Zn311	Zn31	0.871690	0.925790	0.397870
Zn321	Zn32	0.829490	0.901140	0.363820
O2111	O211	0.795770	0.881110	0.335980
H4591	H459	0.803600	0.862500	0.331000
O2121	O212	0.905520	0.946670	0.425690
H4601	H460	0.899800	0.966900	0.428700
O2131	O213	0.792480	0.918910	0.384710
O2141	O214	0.782030	0.019020	0.474670
O2151	O215	0.828350	0.941890	0.412430
O2161	O216	0.724800	0.032590	0.475060
C8221	C822	0.772970	0.974530	0.436230
H4611	H461	0.795700	0.980200	0.440900
C8231	C823	0.798630	0.936890	0.403600
N1361	N136	0.671090	0.946570	0.416610
C8241	C824	0.744770	0.989430	0.448180
C8251	C825	0.750880	0.016610	0.467970
C8261	C826	0.710980	0.980530	0.441810
H4621	H462	0.692000	0.990200	0.450000
C8271	C827	0.767370	0.951240	0.417360
C8281	C828	0.608250	0.873760	0.378180
H4631	H463	0.632000	0.870300	0.375200
N1371	N137	0.615790	0.949630	0.416000
C8291	C829	0.536040	0.730310	0.263070
C8301	C830	0.733630	0.941960	0.410660
H4641	H464	0.729800	0.926100	0.398100
C8311	C831	0.705800	0.956800	0.423000
C8321	C832	0.517840	0.769110	0.303910
C8331	C833	0.522950	0.833140	0.356200
C8341	C834	0.532050	0.812230	0.337190
H4651	H465	0.555200	0.812300	0.331900
C8351	C835	0.504800	0.740070	0.266490
H4661	H466	0.487900	0.734300	0.255000
C8361	C836	0.659780	0.920390	0.402930
H4671	H467	0.673500	0.903500	0.395300
C8371	C837	0.507980	0.790790	0.325390
C8381	C838	0.598910	0.899050	0.391130
C8391	C839	0.539720	0.886500	0.379360
H4681	H468	0.516100	0.892600	0.379600
C8401	C840	0.548880	0.856570	0.368100
C8411	C841	0.550640	0.757900	0.300480
H4691	H469	0.567900	0.764300	0.311500
C8421	C842	0.624590	0.922880	0.402210
C8431	C843	0.494660	0.759170	0.286880
H4701	H470	0.471200	0.765200	0.288800
C8441	C844	0.559610	0.737100	0.281210
H4711	H471	0.582000	0.727500	0.280400
C8451	C845	0.583040	0.849520	0.367580
H4721	H472	0.590900	0.828900	0.360400
C8461	C846	0.563750	0.909300	0.390830
H4731	H473	0.556500	0.930200	0.397900
N1381	N138	0.643650	0.964680	0.424230
C8471	C847	0.218020	0.872590	0.444870
C8481	C848	0.184820	0.869360	0.435350
H4741	H474	0.165900	0.880300	0.442800
C8491	C849	0.179960	0.849560	0.414390
C8501	C850	0.224420	0.896360	0.466550
N1391	N139	0.270540	0.820250	0.401410
C8511	C851	0.240940	0.836750	0.413510
C8521	C852	0.303260	0.831560	0.401260
H4751	H475	0.312200	0.851100	0.409200
C8531	C853	0.321260	0.808090	0.386870
N1401	N140	0.296920	0.784300	0.378740
N1411	N141	0.549170	0.679480	0.208930
C8541	C854	0.527660	0.697340	0.222730
H4761	H476	0.503800	0.700600	0.220000
C8551	C855	0.546080	0.709910	0.241270
N1421	N142	0.580180	0.679400	0.218940
N1431	N143	0.579030	0.697500	0.238660
O2171	O217	0.198630	0.911810	0.474780
O2181	O218	0.255200	0.898200	0.474460
C8561	C856	0.511270	0.662050	0.175810
H4771	H477	0.492900	0.673900	0.183300
C8571	C857	0.571980	0.645130	0.175490
H4781	H478	0.594000	0.645900	0.182700
C8581	C858	0.543530	0.661550	0.186190
C8591	C859	0.534110	0.627220	0.143120
H4791	H479	0.530700	0.615300	0.128600
C8601	C860	0.566640	0.627540	0.153690
C8611	C861	0.505840	0.644740	0.154010
C8621	C862	0.144070	0.847990	0.402080
C8631	C863	0.471190	0.646440	0.141230
C8641	C864	0.597840	0.611360	0.141210
N1441	N144	0.266300	0.792490	0.387420
O2191	O219	0.467550	0.627750	0.122580
O2201	O220	0.120410	0.864890	0.413100
O2211	O221	0.142190	0.831100	0.383350
O2221	O222	0.590750	0.595200	0.121990
O2231	O223	0.447980	0.665140	0.150620
O2241	O224	0.626430	0.613840	0.151410
H4801	H480	0.365100	0.796900	0.393100
Zn331	Zn33	0.552230	0.702990	0.000000
Zn341	Zn34	0.569300	0.770280	0.000000
Zn351	Zn35	0.052230	0.202990	0.500000
Zn361	Zn36	0.069300	0.270280	0.500000
Zn371	Zn37	0.447770	0.297010	0.000000
Zn381	Zn38	0.430700	0.229720	0.000000
Zn391	Zn39	0.947770	0.797010	0.500000
Zn401	Zn40	0.930700	0.729720	0.500000
Zn411	Zn41	0.297010	0.552230	0.000000
Zn421	Zn42	0.229720	0.569300	0.000000
Zn431	Zn43	0.797010	0.052230	0.500000
Zn441	Zn44	0.729720	0.069300	0.500000
Zn451	Zn45	0.702990	0.447770	0.000000
Zn461	Zn46	0.770280	0.430700	0.000000
Zn471	Zn47	0.202990	0.947770	0.500000
Zn481	Zn48	0.270280	0.930700	0.500000
