data_YUZPEQ_clean_PM
_symmetry_space_group_name_H-M	'P1'
_cell_length_a	35.909600
_cell_length_b	35.909600
_cell_length_c	51.353300
_cell_angle_alpha	90.000000
_cell_angle_beta	90.000000
_cell_angle_gamma	90.000000
_symmetry_Int_Tables_number 1

loop_
_symmetry_equiv_pos_as_xyz
'x,y,z'

loop_
_atom_site_label
_atom_site_type_symbol
_atom_site_fract_x
_atom_site_fract_y
_atom_site_fract_z
Zn11	Zn1	0.916080	0.132760	0.390140
Zn21	Zn2	0.887890	0.176820	0.353660
O11	O1	0.941750	0.099110	0.419740
H11	H1	0.929400	0.080100	0.421900
O21	O2	0.864750	0.211520	0.323970
H21	H2	0.843400	0.204700	0.320700
O31	O3	0.725510	0.096270	0.472710
O41	O4	0.866950	0.138270	0.406660
O51	O5	0.786370	0.084530	0.473070
O61	O6	0.842420	0.172940	0.374820
C11	C1	0.732640	0.142740	0.430010
H31	H3	0.709000	0.139700	0.437100
C21	C2	0.763460	0.125660	0.441000
C31	C3	0.757590	0.099490	0.464080
C41	C4	0.798900	0.130350	0.430540
H41	H4	0.819400	0.119100	0.438400
N11	N1	0.706010	0.180890	0.395420
C51	C5	0.803420	0.152000	0.408240
C61	C6	0.841040	0.154440	0.394770
C71	C7	0.772650	0.169160	0.396790
H51	H5	0.775400	0.183500	0.381800
C81	C8	0.738210	0.164470	0.408100
C91	C9	0.671370	0.168260	0.394900
H61	H6	0.662300	0.146600	0.402500
N21	N2	0.709350	0.214590	0.383780
C101	C10	0.652160	0.193760	0.380940
C111	C11	0.612990	0.195370	0.373000
N31	N3	0.676090	0.221990	0.375110
C121	C12	0.592080	0.164940	0.374450
H71	H7	0.602400	0.143300	0.381200
C131	C13	0.596290	0.228000	0.365550
H81	H8	0.609100	0.250500	0.366000
C141	C14	0.559610	0.226200	0.357280
H91	H9	0.548400	0.248100	0.351600
C151	C15	0.555150	0.164500	0.366070
H101	H10	0.541600	0.142500	0.366900
C161	C16	0.539200	0.194800	0.356990
N41	N4	0.500960	0.195550	0.349150
C171	C17	0.490240	0.216000	0.327180
C181	C18	0.510810	0.220500	0.306840
H111	H11	0.534200	0.209300	0.307000
C191	C19	0.459090	0.236000	0.327700
H121	H12	0.443700	0.235300	0.342200
C201	C20	0.474860	0.173200	0.362310
C211	C21	0.444480	0.162300	0.352370
H131	H13	0.439100	0.170200	0.335500
C221	C22	0.501280	0.240550	0.284590
H141	H14	0.517300	0.241200	0.270400
C231	C23	0.470330	0.258000	0.283980
C241	C24	0.449490	0.258400	0.306070
H151	H15	0.428600	0.273600	0.307000
C251	C25	0.421800	0.130600	0.388510
C261	C26	0.417900	0.139000	0.364810
H161	H16	0.397600	0.129900	0.355500
C271	C27	0.448210	0.151100	0.403250
H171	H17	0.447000	0.152700	0.421300
C281	C28	0.476750	0.169300	0.388510
H181	H18	0.497300	0.178800	0.397300
N51	N5	0.455710	0.311260	0.225650
C291	C29	0.477780	0.291410	0.240200
H191	H19	0.502300	0.285400	0.236200
C301	C30	0.460150	0.281200	0.261410
N61	N6	0.345700	0.078120	0.415580
C311	C31	0.358870	0.098420	0.396470
H201	H20	0.345900	0.105600	0.381600
N71	N7	0.370420	0.078510	0.436050
N81	N8	0.400230	0.096800	0.427300
C321	C32	0.393300	0.106900	0.401860
N91	N9	0.425050	0.317000	0.238900
N101	N10	0.427180	0.298500	0.260390
C331	C33	0.500010	0.346560	0.165490
C341	C34	0.495640	0.329140	0.189840
H211	H21	0.515800	0.318100	0.198200
C351	C35	0.430100	0.344640	0.189200
H221	H22	0.406700	0.343300	0.197000
C361	C36	0.460360	0.328830	0.201060
C371	C37	0.239300	0.037480	0.431410
H231	H23	0.215400	0.029800	0.435900
C381	C38	0.244500	0.062550	0.411460
C391	C39	0.270190	0.023600	0.444900
C401	C40	0.279500	0.075720	0.405770
H241	H24	0.283000	0.092900	0.392400
C411	C41	0.304970	0.036420	0.439260
H251	H25	0.325500	0.027200	0.448300
C421	C42	0.309680	0.062890	0.420280
C431	C43	0.401080	0.378950	0.151980
C441	C44	0.536880	0.345870	0.151700
C451	C45	0.469510	0.363340	0.154030
H261	H26	0.472400	0.375400	0.138100
C461	C46	0.434510	0.362600	0.165690
C471	C47	0.211120	0.075980	0.396290
C481	C48	0.264180	0.993940	0.465780
O71	O7	0.539950	0.365800	0.132240
O81	O8	0.408170	0.395610	0.131100
O91	O9	0.562260	0.326680	0.161670
O101	O10	0.370660	0.374400	0.162790
O111	O11	0.179730	0.068600	0.405530
O121	O12	0.217160	0.094850	0.376220
O131	O13	0.231550	0.990260	0.472990
O141	O14	0.292920	0.978330	0.473440
Zn31	Zn3	0.416080	0.632760	0.890140
Zn41	Zn4	0.387890	0.676820	0.853660
O151	O15	0.441750	0.599110	0.919740
H271	H27	0.429400	0.580100	0.921900
O161	O16	0.364750	0.711520	0.823970
H281	H28	0.343400	0.704700	0.820700
O171	O17	0.225510	0.596270	0.972710
O181	O18	0.366950	0.638270	0.906660
O191	O19	0.286370	0.584530	0.973070
O201	O20	0.342420	0.672940	0.874820
C491	C49	0.232640	0.642740	0.930010
H291	H29	0.209000	0.639700	0.937100
C501	C50	0.263460	0.625660	0.941000
C511	C51	0.257590	0.599490	0.964080
C521	C52	0.298900	0.630350	0.930540
H301	H30	0.319400	0.619100	0.938400
N111	N11	0.206010	0.680890	0.895420
C531	C53	0.303420	0.652000	0.908240
C541	C54	0.341040	0.654440	0.894770
C551	C55	0.272650	0.669160	0.896790
H311	H31	0.275400	0.683500	0.881800
C561	C56	0.238210	0.664470	0.908100
C571	C57	0.171370	0.668260	0.894900
H321	H32	0.162300	0.646600	0.902500
N121	N12	0.209350	0.714590	0.883780
C581	C58	0.152160	0.693760	0.880940
C591	C59	0.112990	0.695370	0.873000
N131	N13	0.176090	0.721990	0.875110
C601	C60	0.092080	0.664940	0.874450
H331	H33	0.102400	0.643300	0.881200
C611	C61	0.096290	0.728000	0.865550
H341	H34	0.109100	0.750500	0.866000
C621	C62	0.059610	0.726200	0.857280
H351	H35	0.048400	0.748100	0.851600
C631	C63	0.055150	0.664500	0.866070
H361	H36	0.041600	0.642500	0.866900
C641	C64	0.039200	0.694800	0.856990
N141	N14	0.000960	0.695550	0.849150
C651	C65	0.990240	0.716000	0.827180
C661	C66	0.010810	0.720500	0.806840
H371	H37	0.034200	0.709300	0.807000
C671	C67	0.959090	0.736000	0.827700
H381	H38	0.943700	0.735300	0.842200
C681	C68	0.974860	0.673200	0.862310
C691	C69	0.944480	0.662300	0.852370
H391	H39	0.939100	0.670200	0.835500
C701	C70	0.001280	0.740550	0.784590
H401	H40	0.017300	0.741200	0.770400
C711	C71	0.970330	0.758000	0.783980
C721	C72	0.949490	0.758400	0.806070
H411	H41	0.928600	0.773600	0.807000
C731	C73	0.921800	0.630600	0.888510
C741	C74	0.917900	0.639000	0.864810
H421	H42	0.897600	0.629900	0.855500
C751	C75	0.948210	0.651100	0.903250
H431	H43	0.947000	0.652700	0.921300
C761	C76	0.976750	0.669300	0.888510
H441	H44	0.997300	0.678800	0.897300
N151	N15	0.955710	0.811260	0.725650
C771	C77	0.977780	0.791410	0.740200
H451	H45	0.002300	0.785400	0.736200
C781	C78	0.960150	0.781200	0.761410
N161	N16	0.845700	0.578120	0.915580
C791	C79	0.858870	0.598420	0.896470
H461	H46	0.845900	0.605600	0.881600
N171	N17	0.870420	0.578510	0.936050
N181	N18	0.900230	0.596800	0.927300
C801	C80	0.893300	0.606900	0.901860
N191	N19	0.925050	0.817000	0.738900
N201	N20	0.927180	0.798500	0.760390
C811	C81	0.000010	0.846560	0.665490
C821	C82	0.995640	0.829140	0.689840
H471	H47	0.015800	0.818100	0.698200
C831	C83	0.930100	0.844640	0.689200
H481	H48	0.906700	0.843300	0.697000
C841	C84	0.960360	0.828830	0.701060
C851	C85	0.739300	0.537480	0.931410
H491	H49	0.715400	0.529800	0.935900
C861	C86	0.744500	0.562550	0.911460
C871	C87	0.770190	0.523600	0.944900
C881	C88	0.779500	0.575720	0.905770
H501	H50	0.783000	0.592900	0.892400
C891	C89	0.804970	0.536420	0.939260
H511	H51	0.825500	0.527200	0.948300
C901	C90	0.809680	0.562890	0.920280
C911	C91	0.901080	0.878950	0.651980
C921	C92	0.036880	0.845870	0.651700
C931	C93	0.969510	0.863340	0.654030
H521	H52	0.972400	0.875400	0.638100
C941	C94	0.934510	0.862600	0.665690
C951	C95	0.711120	0.575980	0.896290
C961	C96	0.764180	0.493940	0.965780
O211	O21	0.039950	0.865800	0.632240
O221	O22	0.908170	0.895610	0.631100
O231	O23	0.062260	0.826680	0.661670
O241	O24	0.870660	0.874400	0.662790
O251	O25	0.679730	0.568600	0.905530
O261	O26	0.717160	0.594850	0.876220
O271	O27	0.731550	0.490260	0.972990
O281	O28	0.792920	0.478330	0.973440
Zn51	Zn5	0.083920	0.867240	0.390140
Zn61	Zn6	0.112110	0.823180	0.353660
O291	O29	0.058250	0.900890	0.419740
H531	H53	0.070600	0.919900	0.421900
O301	O30	0.135250	0.788480	0.323970
H541	H54	0.156600	0.795300	0.320700
O311	O31	0.274490	0.903730	0.472710
O321	O32	0.133050	0.861730	0.406660
O331	O33	0.213630	0.915470	0.473070
O341	O34	0.157580	0.827060	0.374820
C971	C97	0.267360	0.857260	0.430010
H551	H55	0.291000	0.860300	0.437100
C981	C98	0.236540	0.874340	0.441000
C991	C99	0.242410	0.900510	0.464080
C1001	C100	0.201100	0.869650	0.430540
H561	H56	0.180600	0.880900	0.438400
N211	N21	0.293990	0.819110	0.395420
C1011	C101	0.196580	0.848000	0.408240
C1021	C102	0.158960	0.845560	0.394770
C1031	C103	0.227350	0.830840	0.396790
H571	H57	0.224600	0.816500	0.381800
C1041	C104	0.261790	0.835530	0.408100
C1051	C105	0.328630	0.831740	0.394900
H581	H58	0.337700	0.853400	0.402500
N221	N22	0.290650	0.785410	0.383780
C1061	C106	0.347840	0.806240	0.380940
C1071	C107	0.387010	0.804630	0.373000
N231	N23	0.323910	0.778010	0.375110
C1081	C108	0.407920	0.835060	0.374450
H591	H59	0.397600	0.856700	0.381200
C1091	C109	0.403710	0.772000	0.365550
H601	H60	0.390900	0.749500	0.366000
C1101	C110	0.440390	0.773800	0.357280
H611	H61	0.451600	0.751900	0.351600
C1111	C111	0.444850	0.835500	0.366070
H621	H62	0.458400	0.857500	0.366900
C1121	C112	0.460800	0.805200	0.356990
N241	N24	0.499040	0.804450	0.349150
C1131	C113	0.509760	0.784000	0.327180
C1141	C114	0.489190	0.779500	0.306840
H631	H63	0.465800	0.790700	0.307000
C1151	C115	0.540910	0.764000	0.327700
H641	H64	0.556300	0.764700	0.342200
C1161	C116	0.525140	0.826800	0.362310
C1171	C117	0.555520	0.837700	0.352370
H651	H65	0.560900	0.829800	0.335500
C1181	C118	0.498720	0.759450	0.284590
H661	H66	0.482700	0.758800	0.270400
C1191	C119	0.529670	0.742000	0.283980
C1201	C120	0.550510	0.741600	0.306070
H671	H67	0.571400	0.726400	0.307000
C1211	C121	0.578200	0.869400	0.388510
C1221	C122	0.582100	0.861000	0.364810
H681	H68	0.602400	0.870100	0.355500
C1231	C123	0.551790	0.848900	0.403250
H691	H69	0.553000	0.847300	0.421300
C1241	C124	0.523250	0.830700	0.388510
H701	H70	0.502700	0.821200	0.397300
N251	N25	0.544290	0.688740	0.225650
C1251	C125	0.522220	0.708590	0.240200
H711	H71	0.497700	0.714600	0.236200
C1261	C126	0.539850	0.718800	0.261410
N261	N26	0.654300	0.921880	0.415580
C1271	C127	0.641130	0.901580	0.396470
H721	H72	0.654100	0.894400	0.381600
N271	N27	0.629580	0.921490	0.436050
N281	N28	0.599770	0.903200	0.427300
C1281	C128	0.606700	0.893100	0.401860
N291	N29	0.574950	0.683000	0.238900
N301	N30	0.572820	0.701500	0.260390
C1291	C129	0.499990	0.653440	0.165490
C1301	C130	0.504360	0.670860	0.189840
H731	H73	0.484200	0.681900	0.198200
C1311	C131	0.569900	0.655360	0.189200
H741	H74	0.593300	0.656700	0.197000
C1321	C132	0.539640	0.671170	0.201060
C1331	C133	0.760700	0.962520	0.431410
H751	H75	0.784600	0.970200	0.435900
C1341	C134	0.755500	0.937450	0.411460
C1351	C135	0.729810	0.976400	0.444900
C1361	C136	0.720500	0.924280	0.405770
H761	H76	0.717000	0.907100	0.392400
C1371	C137	0.695030	0.963580	0.439260
H771	H77	0.674500	0.972800	0.448300
C1381	C138	0.690320	0.937110	0.420280
C1391	C139	0.598920	0.621050	0.151980
C1401	C140	0.463120	0.654130	0.151700
C1411	C141	0.530490	0.636660	0.154030
H781	H78	0.527600	0.624600	0.138100
C1421	C142	0.565490	0.637400	0.165690
C1431	C143	0.788880	0.924020	0.396290
C1441	C144	0.735820	0.006060	0.465780
O351	O35	0.460050	0.634200	0.132240
O361	O36	0.591830	0.604390	0.131100
O371	O37	0.437740	0.673320	0.161670
O381	O38	0.629340	0.625600	0.162790
O391	O39	0.820270	0.931400	0.405530
O401	O40	0.782840	0.905150	0.376220
O411	O41	0.768450	0.009740	0.472990
O421	O42	0.707080	0.021670	0.473440
Zn71	Zn7	0.583920	0.367240	0.890140
Zn81	Zn8	0.612110	0.323180	0.853660
O431	O43	0.558250	0.400890	0.919740
H791	H79	0.570600	0.419900	0.921900
O441	O44	0.635250	0.288480	0.823970
H801	H80	0.656600	0.295300	0.820700
O451	O45	0.774490	0.403730	0.972710
O461	O46	0.633050	0.361730	0.906660
O471	O47	0.713630	0.415470	0.973070
O481	O48	0.657580	0.327060	0.874820
C1451	C145	0.767360	0.357260	0.930010
H811	H81	0.791000	0.360300	0.937100
C1461	C146	0.736540	0.374340	0.941000
C1471	C147	0.742410	0.400510	0.964080
C1481	C148	0.701100	0.369650	0.930540
H821	H82	0.680600	0.380900	0.938400
N311	N31	0.793990	0.319110	0.895420
C1491	C149	0.696580	0.348000	0.908240
C1501	C150	0.658960	0.345560	0.894770
C1511	C151	0.727350	0.330840	0.896790
H831	H83	0.724600	0.316500	0.881800
C1521	C152	0.761790	0.335530	0.908100
C1531	C153	0.828630	0.331740	0.894900
H841	H84	0.837700	0.353400	0.902500
N321	N32	0.790650	0.285410	0.883780
C1541	C154	0.847840	0.306240	0.880940
C1551	C155	0.887010	0.304630	0.873000
N331	N33	0.823910	0.278010	0.875110
C1561	C156	0.907920	0.335060	0.874450
H851	H85	0.897600	0.356700	0.881200
C1571	C157	0.903710	0.272000	0.865550
H861	H86	0.890900	0.249500	0.866000
C1581	C158	0.940390	0.273800	0.857280
H871	H87	0.951600	0.251900	0.851600
C1591	C159	0.944850	0.335500	0.866070
H881	H88	0.958400	0.357500	0.866900
C1601	C160	0.960800	0.305200	0.856990
N341	N34	0.999040	0.304450	0.849150
C1611	C161	0.009760	0.284000	0.827180
C1621	C162	0.989190	0.279500	0.806840
H891	H89	0.965800	0.290700	0.807000
C1631	C163	0.040910	0.264000	0.827700
H901	H90	0.056300	0.264700	0.842200
C1641	C164	0.025140	0.326800	0.862310
C1651	C165	0.055520	0.337700	0.852370
H911	H91	0.060900	0.329800	0.835500
C1661	C166	0.998720	0.259450	0.784590
H921	H92	0.982700	0.258800	0.770400
C1671	C167	0.029670	0.242000	0.783980
C1681	C168	0.050510	0.241600	0.806070
H931	H93	0.071400	0.226400	0.807000
C1691	C169	0.078200	0.369400	0.888510
C1701	C170	0.082100	0.361000	0.864810
H941	H94	0.102400	0.370100	0.855500
C1711	C171	0.051790	0.348900	0.903250
H951	H95	0.053000	0.347300	0.921300
C1721	C172	0.023250	0.330700	0.888510
H961	H96	0.002700	0.321200	0.897300
N351	N35	0.044290	0.188740	0.725650
C1731	C173	0.022220	0.208590	0.740200
H971	H97	0.997700	0.214600	0.736200
C1741	C174	0.039850	0.218800	0.761410
N361	N36	0.154300	0.421880	0.915580
C1751	C175	0.141130	0.401580	0.896470
H981	H98	0.154100	0.394400	0.881600
N371	N37	0.129580	0.421490	0.936050
N381	N38	0.099770	0.403200	0.927300
C1761	C176	0.106700	0.393100	0.901860
N391	N39	0.074950	0.183000	0.738900
N401	N40	0.072820	0.201500	0.760390
C1771	C177	0.999990	0.153440	0.665490
C1781	C178	0.004360	0.170860	0.689840
H991	H99	0.984200	0.181900	0.698200
C1791	C179	0.069900	0.155360	0.689200
H1001	H100	0.093300	0.156700	0.697000
C1801	C180	0.039640	0.171170	0.701060
C1811	C181	0.260700	0.462520	0.931410
H1011	H101	0.284600	0.470200	0.935900
C1821	C182	0.255500	0.437450	0.911460
C1831	C183	0.229810	0.476400	0.944900
C1841	C184	0.220500	0.424280	0.905770
H1021	H102	0.217000	0.407100	0.892400
C1851	C185	0.195030	0.463580	0.939260
H1031	H103	0.174500	0.472800	0.948300
C1861	C186	0.190320	0.437110	0.920280
C1871	C187	0.098920	0.121050	0.651980
C1881	C188	0.963120	0.154130	0.651700
C1891	C189	0.030490	0.136660	0.654030
H1041	H104	0.027600	0.124600	0.638100
C1901	C190	0.065490	0.137400	0.665690
C1911	C191	0.288880	0.424020	0.896290
C1921	C192	0.235820	0.506060	0.965780
O491	O49	0.960050	0.134200	0.632240
O501	O50	0.091830	0.104390	0.631100
O511	O51	0.937740	0.173320	0.661670
O521	O52	0.129340	0.125600	0.662790
O531	O53	0.320270	0.431400	0.905530
O541	O54	0.282840	0.405150	0.876220
O551	O55	0.268450	0.509740	0.972990
O561	O56	0.207080	0.521670	0.973440
Zn91	Zn9	0.867240	0.916080	0.390140
Zn101	Zn10	0.823180	0.887890	0.353660
O571	O57	0.900890	0.941750	0.419740
H1051	H105	0.919900	0.929400	0.421900
O581	O58	0.788480	0.864750	0.323970
H1061	H106	0.795300	0.843400	0.320700
O591	O59	0.903730	0.725510	0.472710
O601	O60	0.861730	0.866950	0.406660
O611	O61	0.915470	0.786370	0.473070
O621	O62	0.827060	0.842420	0.374820
C1931	C193	0.857260	0.732640	0.430010
H1071	H107	0.860300	0.709000	0.437100
C1941	C194	0.874340	0.763460	0.441000
C1951	C195	0.900510	0.757590	0.464080
C1961	C196	0.869650	0.798900	0.430540
H1081	H108	0.880900	0.819400	0.438400
N411	N41	0.819110	0.706010	0.395420
C1971	C197	0.848000	0.803420	0.408240
C1981	C198	0.845560	0.841040	0.394770
C1991	C199	0.830840	0.772650	0.396790
H1091	H109	0.816500	0.775400	0.381800
C2001	C200	0.835530	0.738210	0.408100
C2011	C201	0.831740	0.671370	0.394900
H1101	H110	0.853400	0.662300	0.402500
N421	N42	0.785410	0.709350	0.383780
C2021	C202	0.806240	0.652160	0.380940
C2031	C203	0.804630	0.612990	0.373000
N431	N43	0.778010	0.676090	0.375110
C2041	C204	0.835060	0.592080	0.374450
H1111	H111	0.856700	0.602400	0.381200
C2051	C205	0.772000	0.596290	0.365550
H1121	H112	0.749500	0.609100	0.366000
C2061	C206	0.773800	0.559610	0.357280
H1131	H113	0.751900	0.548400	0.351600
C2071	C207	0.835500	0.555150	0.366070
H1141	H114	0.857500	0.541600	0.366900
C2081	C208	0.805200	0.539200	0.356990
N441	N44	0.804450	0.500960	0.349150
C2091	C209	0.784000	0.490240	0.327180
C2101	C210	0.779500	0.510810	0.306840
H1151	H115	0.790700	0.534200	0.307000
C2111	C211	0.764000	0.459090	0.327700
H1161	H116	0.764700	0.443700	0.342200
C2121	C212	0.826800	0.474860	0.362310
C2131	C213	0.837700	0.444480	0.352370
H1171	H117	0.829800	0.439100	0.335500
C2141	C214	0.759450	0.501280	0.284590
H1181	H118	0.758800	0.517300	0.270400
C2151	C215	0.742000	0.470330	0.283980
C2161	C216	0.741600	0.449490	0.306070
H1191	H119	0.726400	0.428600	0.307000
C2171	C217	0.869400	0.421800	0.388510
C2181	C218	0.861000	0.417900	0.364810
H1201	H120	0.870100	0.397600	0.355500
C2191	C219	0.848900	0.448210	0.403250
H1211	H121	0.847300	0.447000	0.421300
C2201	C220	0.830700	0.476750	0.388510
H1221	H122	0.821200	0.497300	0.397300
N451	N45	0.688740	0.455710	0.225650
C2211	C221	0.708590	0.477780	0.240200
H1231	H123	0.714600	0.502300	0.236200
C2221	C222	0.718800	0.460150	0.261410
N461	N46	0.921880	0.345700	0.415580
C2231	C223	0.901580	0.358870	0.396470
H1241	H124	0.894400	0.345900	0.381600
N471	N47	0.921490	0.370420	0.436050
N481	N48	0.903200	0.400230	0.427300
C2241	C224	0.893100	0.393300	0.401860
N491	N49	0.683000	0.425050	0.238900
N501	N50	0.701500	0.427180	0.260390
C2251	C225	0.653440	0.500010	0.165490
C2261	C226	0.670860	0.495640	0.189840
H1251	H125	0.681900	0.515800	0.198200
C2271	C227	0.655360	0.430100	0.189200
H1261	H126	0.656700	0.406700	0.197000
C2281	C228	0.671170	0.460360	0.201060
C2291	C229	0.962520	0.239300	0.431410
H1271	H127	0.970200	0.215400	0.435900
C2301	C230	0.937450	0.244500	0.411460
C2311	C231	0.976400	0.270190	0.444900
C2321	C232	0.924280	0.279500	0.405770
H1281	H128	0.907100	0.283000	0.392400
C2331	C233	0.963580	0.304970	0.439260
H1291	H129	0.972800	0.325500	0.448300
C2341	C234	0.937110	0.309680	0.420280
C2351	C235	0.621050	0.401080	0.151980
C2361	C236	0.654130	0.536880	0.151700
C2371	C237	0.636660	0.469510	0.154030
H1301	H130	0.624600	0.472400	0.138100
C2381	C238	0.637400	0.434510	0.165690
C2391	C239	0.924020	0.211120	0.396290
C2401	C240	0.006060	0.264180	0.465780
O631	O63	0.634200	0.539950	0.132240
O641	O64	0.604390	0.408170	0.131100
O651	O65	0.673320	0.562260	0.161670
O661	O66	0.625600	0.370660	0.162790
O671	O67	0.931400	0.179730	0.405530
O681	O68	0.905150	0.217160	0.376220
O691	O69	0.009740	0.231550	0.472990
O701	O70	0.021670	0.292920	0.473440
Zn111	Zn11	0.367240	0.416080	0.890140
Zn121	Zn12	0.323180	0.387890	0.853660
O711	O71	0.400890	0.441750	0.919740
H1311	H131	0.419900	0.429400	0.921900
O721	O72	0.288480	0.364750	0.823970
H1321	H132	0.295300	0.343400	0.820700
O731	O73	0.403730	0.225510	0.972710
O741	O74	0.361730	0.366950	0.906660
O751	O75	0.415470	0.286370	0.973070
O761	O76	0.327060	0.342420	0.874820
C2411	C241	0.357260	0.232640	0.930010
H1331	H133	0.360300	0.209000	0.937100
C2421	C242	0.374340	0.263460	0.941000
C2431	C243	0.400510	0.257590	0.964080
C2441	C244	0.369650	0.298900	0.930540
H1341	H134	0.380900	0.319400	0.938400
N511	N51	0.319110	0.206010	0.895420
C2451	C245	0.348000	0.303420	0.908240
C2461	C246	0.345560	0.341040	0.894770
C2471	C247	0.330840	0.272650	0.896790
H1351	H135	0.316500	0.275400	0.881800
C2481	C248	0.335530	0.238210	0.908100
C2491	C249	0.331740	0.171370	0.894900
H1361	H136	0.353400	0.162300	0.902500
N521	N52	0.285410	0.209350	0.883780
C2501	C250	0.306240	0.152160	0.880940
C2511	C251	0.304630	0.112990	0.873000
N531	N53	0.278010	0.176090	0.875110
C2521	C252	0.335060	0.092080	0.874450
H1371	H137	0.356700	0.102400	0.881200
C2531	C253	0.272000	0.096290	0.865550
H1381	H138	0.249500	0.109100	0.866000
C2541	C254	0.273800	0.059610	0.857280
H1391	H139	0.251900	0.048400	0.851600
C2551	C255	0.335500	0.055150	0.866070
H1401	H140	0.357500	0.041600	0.866900
C2561	C256	0.305200	0.039200	0.856990
N541	N54	0.304450	0.000960	0.849150
C2571	C257	0.284000	0.990240	0.827180
C2581	C258	0.279500	0.010810	0.806840
H1411	H141	0.290700	0.034200	0.807000
C2591	C259	0.264000	0.959090	0.827700
H1421	H142	0.264700	0.943700	0.842200
C2601	C260	0.326800	0.974860	0.862310
C2611	C261	0.337700	0.944480	0.852370
H1431	H143	0.329800	0.939100	0.835500
C2621	C262	0.259450	0.001280	0.784590
H1441	H144	0.258800	0.017300	0.770400
C2631	C263	0.242000	0.970330	0.783980
C2641	C264	0.241600	0.949490	0.806070
H1451	H145	0.226400	0.928600	0.807000
C2651	C265	0.369400	0.921800	0.888510
C2661	C266	0.361000	0.917900	0.864810
H1461	H146	0.370100	0.897600	0.855500
C2671	C267	0.348900	0.948210	0.903250
H1471	H147	0.347300	0.947000	0.921300
C2681	C268	0.330700	0.976750	0.888510
H1481	H148	0.321200	0.997300	0.897300
N551	N55	0.188740	0.955710	0.725650
C2691	C269	0.208590	0.977780	0.740200
H1491	H149	0.214600	0.002300	0.736200
C2701	C270	0.218800	0.960150	0.761410
N561	N56	0.421880	0.845700	0.915580
C2711	C271	0.401580	0.858870	0.896470
H1501	H150	0.394400	0.845900	0.881600
N571	N57	0.421490	0.870420	0.936050
N581	N58	0.403200	0.900230	0.927300
C2721	C272	0.393100	0.893300	0.901860
N591	N59	0.183000	0.925050	0.738900
N601	N60	0.201500	0.927180	0.760390
C2731	C273	0.153440	0.000010	0.665490
C2741	C274	0.170860	0.995640	0.689840
H1511	H151	0.181900	0.015800	0.698200
C2751	C275	0.155360	0.930100	0.689200
H1521	H152	0.156700	0.906700	0.697000
C2761	C276	0.171170	0.960360	0.701060
C2771	C277	0.462520	0.739300	0.931410
H1531	H153	0.470200	0.715400	0.935900
C2781	C278	0.437450	0.744500	0.911460
C2791	C279	0.476400	0.770190	0.944900
C2801	C280	0.424280	0.779500	0.905770
H1541	H154	0.407100	0.783000	0.892400
C2811	C281	0.463580	0.804970	0.939260
H1551	H155	0.472800	0.825500	0.948300
C2821	C282	0.437110	0.809680	0.920280
C2831	C283	0.121050	0.901080	0.651980
C2841	C284	0.154130	0.036880	0.651700
C2851	C285	0.136660	0.969510	0.654030
H1561	H156	0.124600	0.972400	0.638100
C2861	C286	0.137400	0.934510	0.665690
C2871	C287	0.424020	0.711120	0.896290
C2881	C288	0.506060	0.764180	0.965780
O771	O77	0.134200	0.039950	0.632240
O781	O78	0.104390	0.908170	0.631100
O791	O79	0.173320	0.062260	0.661670
O801	O80	0.125600	0.870660	0.662790
O811	O81	0.431400	0.679730	0.905530
O821	O82	0.405150	0.717160	0.876220
O831	O83	0.509740	0.731550	0.972990
O841	O84	0.521670	0.792920	0.973440
Zn131	Zn13	0.132760	0.083920	0.390140
Zn141	Zn14	0.176820	0.112110	0.353660
O851	O85	0.099110	0.058250	0.419740
H1571	H157	0.080100	0.070600	0.421900
O861	O86	0.211520	0.135250	0.323970
H1581	H158	0.204700	0.156600	0.320700
O871	O87	0.096270	0.274490	0.472710
O881	O88	0.138270	0.133050	0.406660
O891	O89	0.084530	0.213630	0.473070
O901	O90	0.172940	0.157580	0.374820
C2891	C289	0.142740	0.267360	0.430010
H1591	H159	0.139700	0.291000	0.437100
C2901	C290	0.125660	0.236540	0.441000
C2911	C291	0.099490	0.242410	0.464080
C2921	C292	0.130350	0.201100	0.430540
H1601	H160	0.119100	0.180600	0.438400
N611	N61	0.180890	0.293990	0.395420
C2931	C293	0.152000	0.196580	0.408240
C2941	C294	0.154440	0.158960	0.394770
C2951	C295	0.169160	0.227350	0.396790
H1611	H161	0.183500	0.224600	0.381800
C2961	C296	0.164470	0.261790	0.408100
C2971	C297	0.168260	0.328630	0.394900
H1621	H162	0.146600	0.337700	0.402500
N621	N62	0.214590	0.290650	0.383780
C2981	C298	0.193760	0.347840	0.380940
C2991	C299	0.195370	0.387010	0.373000
N631	N63	0.221990	0.323910	0.375110
C3001	C300	0.164940	0.407920	0.374450
H1631	H163	0.143300	0.397600	0.381200
C3011	C301	0.228000	0.403710	0.365550
H1641	H164	0.250500	0.390900	0.366000
C3021	C302	0.226200	0.440390	0.357280
H1651	H165	0.248100	0.451600	0.351600
C3031	C303	0.164500	0.444850	0.366070
H1661	H166	0.142500	0.458400	0.366900
C3041	C304	0.194800	0.460800	0.356990
N641	N64	0.195550	0.499040	0.349150
C3051	C305	0.216000	0.509760	0.327180
C3061	C306	0.220500	0.489190	0.306840
H1671	H167	0.209300	0.465800	0.307000
C3071	C307	0.236000	0.540910	0.327700
H1681	H168	0.235300	0.556300	0.342200
C3081	C308	0.173200	0.525140	0.362310
C3091	C309	0.162300	0.555520	0.352370
H1691	H169	0.170200	0.560900	0.335500
C3101	C310	0.240550	0.498720	0.284590
H1701	H170	0.241200	0.482700	0.270400
C3111	C311	0.258000	0.529670	0.283980
C3121	C312	0.258400	0.550510	0.306070
H1711	H171	0.273600	0.571400	0.307000
C3131	C313	0.130600	0.578200	0.388510
C3141	C314	0.139000	0.582100	0.364810
H1721	H172	0.129900	0.602400	0.355500
C3151	C315	0.151100	0.551790	0.403250
H1731	H173	0.152700	0.553000	0.421300
C3161	C316	0.169300	0.523250	0.388510
H1741	H174	0.178800	0.502700	0.397300
N651	N65	0.311260	0.544290	0.225650
C3171	C317	0.291410	0.522220	0.240200
H1751	H175	0.285400	0.497700	0.236200
C3181	C318	0.281200	0.539850	0.261410
N661	N66	0.078120	0.654300	0.415580
C3191	C319	0.098420	0.641130	0.396470
H1761	H176	0.105600	0.654100	0.381600
N671	N67	0.078510	0.629580	0.436050
N681	N68	0.096800	0.599770	0.427300
C3201	C320	0.106900	0.606700	0.401860
N691	N69	0.317000	0.574950	0.238900
N701	N70	0.298500	0.572820	0.260390
C3211	C321	0.346560	0.499990	0.165490
C3221	C322	0.329140	0.504360	0.189840
H1771	H177	0.318100	0.484200	0.198200
C3231	C323	0.344640	0.569900	0.189200
H1781	H178	0.343300	0.593300	0.197000
C3241	C324	0.328830	0.539640	0.201060
C3251	C325	0.037480	0.760700	0.431410
H1791	H179	0.029800	0.784600	0.435900
C3261	C326	0.062550	0.755500	0.411460
C3271	C327	0.023600	0.729810	0.444900
C3281	C328	0.075720	0.720500	0.405770
H1801	H180	0.092900	0.717000	0.392400
C3291	C329	0.036420	0.695030	0.439260
H1811	H181	0.027200	0.674500	0.448300
C3301	C330	0.062890	0.690320	0.420280
C3311	C331	0.378950	0.598920	0.151980
C3321	C332	0.345870	0.463120	0.151700
C3331	C333	0.363340	0.530490	0.154030
H1821	H182	0.375400	0.527600	0.138100
C3341	C334	0.362600	0.565490	0.165690
C3351	C335	0.075980	0.788880	0.396290
C3361	C336	0.993940	0.735820	0.465780
O911	O91	0.365800	0.460050	0.132240
O921	O92	0.395610	0.591830	0.131100
O931	O93	0.326680	0.437740	0.161670
O941	O94	0.374400	0.629340	0.162790
O951	O95	0.068600	0.820270	0.405530
O961	O96	0.094850	0.782840	0.376220
O971	O97	0.990260	0.768450	0.472990
O981	O98	0.978330	0.707080	0.473440
Zn151	Zn15	0.632760	0.583920	0.890140
Zn161	Zn16	0.676820	0.612110	0.853660
O991	O99	0.599110	0.558250	0.919740
H1831	H183	0.580100	0.570600	0.921900
O1001	O100	0.711520	0.635250	0.823970
H1841	H184	0.704700	0.656600	0.820700
O1011	O101	0.596270	0.774490	0.972710
O1021	O102	0.638270	0.633050	0.906660
O1031	O103	0.584530	0.713630	0.973070
O1041	O104	0.672940	0.657580	0.874820
C3371	C337	0.642740	0.767360	0.930010
H1851	H185	0.639700	0.791000	0.937100
C3381	C338	0.625660	0.736540	0.941000
C3391	C339	0.599490	0.742410	0.964080
C3401	C340	0.630350	0.701100	0.930540
H1861	H186	0.619100	0.680600	0.938400
N711	N71	0.680890	0.793990	0.895420
C3411	C341	0.652000	0.696580	0.908240
C3421	C342	0.654440	0.658960	0.894770
C3431	C343	0.669160	0.727350	0.896790
H1871	H187	0.683500	0.724600	0.881800
C3441	C344	0.664470	0.761790	0.908100
C3451	C345	0.668260	0.828630	0.894900
H1881	H188	0.646600	0.837700	0.902500
N721	N72	0.714590	0.790650	0.883780
C3461	C346	0.693760	0.847840	0.880940
C3471	C347	0.695370	0.887010	0.873000
N731	N73	0.721990	0.823910	0.875110
C3481	C348	0.664940	0.907920	0.874450
H1891	H189	0.643300	0.897600	0.881200
C3491	C349	0.728000	0.903710	0.865550
H1901	H190	0.750500	0.890900	0.866000
C3501	C350	0.726200	0.940390	0.857280
H1911	H191	0.748100	0.951600	0.851600
C3511	C351	0.664500	0.944850	0.866070
H1921	H192	0.642500	0.958400	0.866900
C3521	C352	0.694800	0.960800	0.856990
N741	N74	0.695550	0.999040	0.849150
C3531	C353	0.716000	0.009760	0.827180
C3541	C354	0.720500	0.989190	0.806840
H1931	H193	0.709300	0.965800	0.807000
C3551	C355	0.736000	0.040910	0.827700
H1941	H194	0.735300	0.056300	0.842200
C3561	C356	0.673200	0.025140	0.862310
C3571	C357	0.662300	0.055520	0.852370
H1951	H195	0.670200	0.060900	0.835500
C3581	C358	0.740550	0.998720	0.784590
H1961	H196	0.741200	0.982700	0.770400
C3591	C359	0.758000	0.029670	0.783980
C3601	C360	0.758400	0.050510	0.806070
H1971	H197	0.773600	0.071400	0.807000
C3611	C361	0.630600	0.078200	0.888510
C3621	C362	0.639000	0.082100	0.864810
H1981	H198	0.629900	0.102400	0.855500
C3631	C363	0.651100	0.051790	0.903250
H1991	H199	0.652700	0.053000	0.921300
C3641	C364	0.669300	0.023250	0.888510
H2001	H200	0.678800	0.002700	0.897300
N751	N75	0.811260	0.044290	0.725650
C3651	C365	0.791410	0.022220	0.740200
H2011	H201	0.785400	0.997700	0.736200
C3661	C366	0.781200	0.039850	0.761410
N761	N76	0.578120	0.154300	0.915580
C3671	C367	0.598420	0.141130	0.896470
H2021	H202	0.605600	0.154100	0.881600
N771	N77	0.578510	0.129580	0.936050
N781	N78	0.596800	0.099770	0.927300
C3681	C368	0.606900	0.106700	0.901860
N791	N79	0.817000	0.074950	0.738900
N801	N80	0.798500	0.072820	0.760390
C3691	C369	0.846560	0.999990	0.665490
C3701	C370	0.829140	0.004360	0.689840
H2031	H203	0.818100	0.984200	0.698200
C3711	C371	0.844640	0.069900	0.689200
H2041	H204	0.843300	0.093300	0.697000
C3721	C372	0.828830	0.039640	0.701060
C3731	C373	0.537480	0.260700	0.931410
H2051	H205	0.529800	0.284600	0.935900
C3741	C374	0.562550	0.255500	0.911460
C3751	C375	0.523600	0.229810	0.944900
C3761	C376	0.575720	0.220500	0.905770
H2061	H206	0.592900	0.217000	0.892400
C3771	C377	0.536420	0.195030	0.939260
H2071	H207	0.527200	0.174500	0.948300
C3781	C378	0.562890	0.190320	0.920280
C3791	C379	0.878950	0.098920	0.651980
C3801	C380	0.845870	0.963120	0.651700
C3811	C381	0.863340	0.030490	0.654030
H2081	H208	0.875400	0.027600	0.638100
C3821	C382	0.862600	0.065490	0.665690
C3831	C383	0.575980	0.288880	0.896290
C3841	C384	0.493940	0.235820	0.965780
O1051	O105	0.865800	0.960050	0.632240
O1061	O106	0.895610	0.091830	0.631100
O1071	O107	0.826680	0.937740	0.661670
O1081	O108	0.874400	0.129340	0.662790
O1091	O109	0.568600	0.320270	0.905530
O1101	O110	0.594850	0.282840	0.876220
O1111	O111	0.490260	0.268450	0.972990
O1121	O112	0.478330	0.207080	0.973440
Zn171	Zn17	0.083920	0.867240	0.609860
Zn181	Zn18	0.112110	0.823180	0.646340
O1131	O113	0.058250	0.900890	0.580260
H2091	H209	0.070600	0.919900	0.578100
O1141	O114	0.135250	0.788480	0.676030
H2101	H210	0.156600	0.795300	0.679300
O1151	O115	0.274490	0.903730	0.527290
O1161	O116	0.133050	0.861730	0.593340
O1171	O117	0.213630	0.915470	0.526930
O1181	O118	0.157580	0.827060	0.625180
C3851	C385	0.267360	0.857260	0.569990
H2111	H211	0.291000	0.860300	0.562900
C3861	C386	0.236540	0.874340	0.559000
C3871	C387	0.242410	0.900510	0.535920
C3881	C388	0.201100	0.869650	0.569460
H2121	H212	0.180600	0.880900	0.561600
N811	N81	0.293990	0.819110	0.604580
C3891	C389	0.196580	0.848000	0.591760
C3901	C390	0.158960	0.845560	0.605230
C3911	C391	0.227350	0.830840	0.603210
H2131	H213	0.224600	0.816500	0.618200
C3921	C392	0.261790	0.835530	0.591900
C3931	C393	0.328630	0.831740	0.605100
H2141	H214	0.337700	0.853400	0.597500
N821	N82	0.290650	0.785410	0.616220
C3941	C394	0.347840	0.806240	0.619060
C3951	C395	0.387010	0.804630	0.627000
N831	N83	0.323910	0.778010	0.624890
C3961	C396	0.407920	0.835060	0.625550
H2151	H215	0.397600	0.856700	0.618800
C3971	C397	0.403710	0.772000	0.634450
H2161	H216	0.390900	0.749500	0.634000
C3981	C398	0.440390	0.773800	0.642720
H2171	H217	0.451600	0.751900	0.648400
C3991	C399	0.444850	0.835500	0.633930
H2181	H218	0.458400	0.857500	0.633100
C4001	C400	0.460800	0.805200	0.643010
N841	N84	0.499040	0.804450	0.650850
C4011	C401	0.509760	0.784000	0.672820
C4021	C402	0.489190	0.779500	0.693160
H2191	H219	0.465800	0.790700	0.693000
C4031	C403	0.540910	0.764000	0.672300
H2201	H220	0.556300	0.764700	0.657800
C4041	C404	0.525140	0.826800	0.637690
C4051	C405	0.555520	0.837700	0.647630
H2211	H221	0.560900	0.829800	0.664500
C4061	C406	0.498720	0.759450	0.715410
H2221	H222	0.482700	0.758800	0.729600
C4071	C407	0.529670	0.742000	0.716020
C4081	C408	0.550510	0.741600	0.693930
H2231	H223	0.571400	0.726400	0.693000
C4091	C409	0.578200	0.869400	0.611490
C4101	C410	0.582100	0.861000	0.635190
H2241	H224	0.602400	0.870100	0.644500
C4111	C411	0.551790	0.848900	0.596750
H2251	H225	0.553000	0.847300	0.578700
C4121	C412	0.523250	0.830700	0.611490
H2261	H226	0.502700	0.821200	0.602700
N851	N85	0.544290	0.688740	0.774350
C4131	C413	0.522220	0.708590	0.759800
H2271	H227	0.497700	0.714600	0.763800
C4141	C414	0.539850	0.718800	0.738590
N861	N86	0.654300	0.921880	0.584420
C4151	C415	0.641130	0.901580	0.603530
H2281	H228	0.654100	0.894400	0.618400
N871	N87	0.629580	0.921490	0.563950
N881	N88	0.599770	0.903200	0.572700
C4161	C416	0.606700	0.893100	0.598140
N891	N89	0.574950	0.683000	0.761100
N901	N90	0.572820	0.701500	0.739610
C4171	C417	0.499990	0.653440	0.834510
C4181	C418	0.504360	0.670860	0.810160
H2291	H229	0.484200	0.681900	0.801800
C4191	C419	0.569900	0.655360	0.810800
H2301	H230	0.593300	0.656700	0.803000
C4201	C420	0.539640	0.671170	0.798940
C4211	C421	0.760700	0.962520	0.568590
H2311	H231	0.784600	0.970200	0.564100
C4221	C422	0.755500	0.937450	0.588540
C4231	C423	0.729810	0.976400	0.555100
C4241	C424	0.720500	0.924280	0.594230
H2321	H232	0.717000	0.907100	0.607600
C4251	C425	0.695030	0.963580	0.560740
H2331	H233	0.674500	0.972800	0.551700
C4261	C426	0.690320	0.937110	0.579720
C4271	C427	0.598920	0.621050	0.848020
C4281	C428	0.463120	0.654130	0.848300
C4291	C429	0.530490	0.636660	0.845970
H2341	H234	0.527600	0.624600	0.861900
C4301	C430	0.565490	0.637400	0.834310
C4311	C431	0.788880	0.924020	0.603710
C4321	C432	0.735820	0.006060	0.534220
O1191	O119	0.460050	0.634200	0.867760
O1201	O120	0.591830	0.604390	0.868900
O1211	O121	0.437740	0.673320	0.838330
O1221	O122	0.629340	0.625600	0.837210
O1231	O123	0.820270	0.931400	0.594470
O1241	O124	0.782840	0.905150	0.623780
O1251	O125	0.768450	0.009740	0.527010
O1261	O126	0.707080	0.021670	0.526560
Zn191	Zn19	0.583920	0.367240	0.109860
Zn201	Zn20	0.612110	0.323180	0.146340
O1271	O127	0.558250	0.400890	0.080260
H2351	H235	0.570600	0.419900	0.078100
O1281	O128	0.635250	0.288480	0.176030
H2361	H236	0.656600	0.295300	0.179300
O1291	O129	0.774490	0.403730	0.027290
O1301	O130	0.633050	0.361730	0.093340
O1311	O131	0.713630	0.415470	0.026930
O1321	O132	0.657580	0.327060	0.125180
C4331	C433	0.767360	0.357260	0.069990
H2371	H237	0.791000	0.360300	0.062900
C4341	C434	0.736540	0.374340	0.059000
C4351	C435	0.742410	0.400510	0.035920
C4361	C436	0.701100	0.369650	0.069460
H2381	H238	0.680600	0.380900	0.061600
N911	N91	0.793990	0.319110	0.104580
C4371	C437	0.696580	0.348000	0.091760
C4381	C438	0.658960	0.345560	0.105230
C4391	C439	0.727350	0.330840	0.103210
H2391	H239	0.724600	0.316500	0.118200
C4401	C440	0.761790	0.335530	0.091900
C4411	C441	0.828630	0.331740	0.105100
H2401	H240	0.837700	0.353400	0.097500
N921	N92	0.790650	0.285410	0.116220
C4421	C442	0.847840	0.306240	0.119060
C4431	C443	0.887010	0.304630	0.127000
N931	N93	0.823910	0.278010	0.124890
C4441	C444	0.907920	0.335060	0.125550
H2411	H241	0.897600	0.356700	0.118800
C4451	C445	0.903710	0.272000	0.134450
H2421	H242	0.890900	0.249500	0.134000
C4461	C446	0.940390	0.273800	0.142720
H2431	H243	0.951600	0.251900	0.148400
C4471	C447	0.944850	0.335500	0.133930
H2441	H244	0.958400	0.357500	0.133100
C4481	C448	0.960800	0.305200	0.143010
N941	N94	0.999040	0.304450	0.150850
C4491	C449	0.009760	0.284000	0.172820
C4501	C450	0.989190	0.279500	0.193160
H2451	H245	0.965800	0.290700	0.193000
C4511	C451	0.040910	0.264000	0.172300
H2461	H246	0.056300	0.264700	0.157800
C4521	C452	0.025140	0.326800	0.137690
C4531	C453	0.055520	0.337700	0.147630
H2471	H247	0.060900	0.329800	0.164500
C4541	C454	0.998720	0.259450	0.215410
H2481	H248	0.982700	0.258800	0.229600
C4551	C455	0.029670	0.242000	0.216020
C4561	C456	0.050510	0.241600	0.193930
H2491	H249	0.071400	0.226400	0.193000
C4571	C457	0.078200	0.369400	0.111490
C4581	C458	0.082100	0.361000	0.135190
H2501	H250	0.102400	0.370100	0.144500
C4591	C459	0.051790	0.348900	0.096750
H2511	H251	0.053000	0.347300	0.078700
C4601	C460	0.023250	0.330700	0.111490
H2521	H252	0.002700	0.321200	0.102700
N951	N95	0.044290	0.188740	0.274350
C4611	C461	0.022220	0.208590	0.259800
H2531	H253	0.997700	0.214600	0.263800
C4621	C462	0.039850	0.218800	0.238590
N961	N96	0.154300	0.421880	0.084420
C4631	C463	0.141130	0.401580	0.103530
H2541	H254	0.154100	0.394400	0.118400
N971	N97	0.129580	0.421490	0.063950
N981	N98	0.099770	0.403200	0.072700
C4641	C464	0.106700	0.393100	0.098140
N991	N99	0.074950	0.183000	0.261100
N1001	N100	0.072820	0.201500	0.239610
C4651	C465	0.999990	0.153440	0.334510
C4661	C466	0.004360	0.170860	0.310160
H2551	H255	0.984200	0.181900	0.301800
C4671	C467	0.069900	0.155360	0.310800
H2561	H256	0.093300	0.156700	0.303000
C4681	C468	0.039640	0.171170	0.298940
C4691	C469	0.260700	0.462520	0.068590
H2571	H257	0.284600	0.470200	0.064100
C4701	C470	0.255500	0.437450	0.088540
C4711	C471	0.229810	0.476400	0.055100
C4721	C472	0.220500	0.424280	0.094230
H2581	H258	0.217000	0.407100	0.107600
C4731	C473	0.195030	0.463580	0.060740
H2591	H259	0.174500	0.472800	0.051700
C4741	C474	0.190320	0.437110	0.079720
C4751	C475	0.098920	0.121050	0.348020
C4761	C476	0.963120	0.154130	0.348300
C4771	C477	0.030490	0.136660	0.345970
H2601	H260	0.027600	0.124600	0.361900
C4781	C478	0.065490	0.137400	0.334310
C4791	C479	0.288880	0.424020	0.103710
C4801	C480	0.235820	0.506060	0.034220
O1331	O133	0.960050	0.134200	0.367760
O1341	O134	0.091830	0.104390	0.368900
O1351	O135	0.937740	0.173320	0.338330
O1361	O136	0.129340	0.125600	0.337210
O1371	O137	0.320270	0.431400	0.094470
O1381	O138	0.282840	0.405150	0.123780
O1391	O139	0.268450	0.509740	0.027010
O1401	O140	0.207080	0.521670	0.026560
Zn211	Zn21	0.916080	0.132760	0.609860
Zn221	Zn22	0.887890	0.176820	0.646340
O1411	O141	0.941750	0.099110	0.580260
H2611	H261	0.929400	0.080100	0.578100
O1421	O142	0.864750	0.211520	0.676030
H2621	H262	0.843400	0.204700	0.679300
O1431	O143	0.725510	0.096270	0.527290
O1441	O144	0.866950	0.138270	0.593340
O1451	O145	0.786370	0.084530	0.526930
O1461	O146	0.842420	0.172940	0.625180
C4811	C481	0.732640	0.142740	0.569990
H2631	H263	0.709000	0.139700	0.562900
C4821	C482	0.763460	0.125660	0.559000
C4831	C483	0.757590	0.099490	0.535920
C4841	C484	0.798900	0.130350	0.569460
H2641	H264	0.819400	0.119100	0.561600
N1011	N101	0.706010	0.180890	0.604580
C4851	C485	0.803420	0.152000	0.591760
C4861	C486	0.841040	0.154440	0.605230
C4871	C487	0.772650	0.169160	0.603210
H2651	H265	0.775400	0.183500	0.618200
C4881	C488	0.738210	0.164470	0.591900
C4891	C489	0.671370	0.168260	0.605100
H2661	H266	0.662300	0.146600	0.597500
N1021	N102	0.709350	0.214590	0.616220
C4901	C490	0.652160	0.193760	0.619060
C4911	C491	0.612990	0.195370	0.627000
N1031	N103	0.676090	0.221990	0.624890
C4921	C492	0.592080	0.164940	0.625550
H2671	H267	0.602400	0.143300	0.618800
C4931	C493	0.596290	0.228000	0.634450
H2681	H268	0.609100	0.250500	0.634000
C4941	C494	0.559610	0.226200	0.642720
H2691	H269	0.548400	0.248100	0.648400
C4951	C495	0.555150	0.164500	0.633930
H2701	H270	0.541600	0.142500	0.633100
C4961	C496	0.539200	0.194800	0.643010
N1041	N104	0.500960	0.195550	0.650850
C4971	C497	0.490240	0.216000	0.672820
C4981	C498	0.510810	0.220500	0.693160
H2711	H271	0.534200	0.209300	0.693000
C4991	C499	0.459090	0.236000	0.672300
H2721	H272	0.443700	0.235300	0.657800
C5001	C500	0.474860	0.173200	0.637690
C5011	C501	0.444480	0.162300	0.647630
H2731	H273	0.439100	0.170200	0.664500
C5021	C502	0.501280	0.240550	0.715410
H2741	H274	0.517300	0.241200	0.729600
C5031	C503	0.470330	0.258000	0.716020
C5041	C504	0.449490	0.258400	0.693930
H2751	H275	0.428600	0.273600	0.693000
C5051	C505	0.421800	0.130600	0.611490
C5061	C506	0.417900	0.139000	0.635190
H2761	H276	0.397600	0.129900	0.644500
C5071	C507	0.448210	0.151100	0.596750
H2771	H277	0.447000	0.152700	0.578700
C5081	C508	0.476750	0.169300	0.611490
H2781	H278	0.497300	0.178800	0.602700
N1051	N105	0.455710	0.311260	0.774350
C5091	C509	0.477780	0.291410	0.759800
H2791	H279	0.502300	0.285400	0.763800
C5101	C510	0.460150	0.281200	0.738590
N1061	N106	0.345700	0.078120	0.584420
C5111	C511	0.358870	0.098420	0.603530
H2801	H280	0.345900	0.105600	0.618400
N1071	N107	0.370420	0.078510	0.563950
N1081	N108	0.400230	0.096800	0.572700
C5121	C512	0.393300	0.106900	0.598140
N1091	N109	0.425050	0.317000	0.761100
N1101	N110	0.427180	0.298500	0.739610
C5131	C513	0.500010	0.346560	0.834510
C5141	C514	0.495640	0.329140	0.810160
H2811	H281	0.515800	0.318100	0.801800
C5151	C515	0.430100	0.344640	0.810800
H2821	H282	0.406700	0.343300	0.803000
C5161	C516	0.460360	0.328830	0.798940
C5171	C517	0.239300	0.037480	0.568590
H2831	H283	0.215400	0.029800	0.564100
C5181	C518	0.244500	0.062550	0.588540
C5191	C519	0.270190	0.023600	0.555100
C5201	C520	0.279500	0.075720	0.594230
H2841	H284	0.283000	0.092900	0.607600
C5211	C521	0.304970	0.036420	0.560740
H2851	H285	0.325500	0.027200	0.551700
C5221	C522	0.309680	0.062890	0.579720
C5231	C523	0.401080	0.378950	0.848020
C5241	C524	0.536880	0.345870	0.848300
C5251	C525	0.469510	0.363340	0.845970
H2861	H286	0.472400	0.375400	0.861900
C5261	C526	0.434510	0.362600	0.834310
C5271	C527	0.211120	0.075980	0.603710
C5281	C528	0.264180	0.993940	0.534220
O1471	O147	0.539950	0.365800	0.867760
O1481	O148	0.408170	0.395610	0.868900
O1491	O149	0.562260	0.326680	0.838330
O1501	O150	0.370660	0.374400	0.837210
O1511	O151	0.179730	0.068600	0.594470
O1521	O152	0.217160	0.094850	0.623780
O1531	O153	0.231550	0.990260	0.527010
O1541	O154	0.292920	0.978330	0.526560
Zn231	Zn23	0.416080	0.632760	0.109860
Zn241	Zn24	0.387890	0.676820	0.146340
O1551	O155	0.441750	0.599110	0.080260
H2871	H287	0.429400	0.580100	0.078100
O1561	O156	0.364750	0.711520	0.176030
H2881	H288	0.343400	0.704700	0.179300
O1571	O157	0.225510	0.596270	0.027290
O1581	O158	0.366950	0.638270	0.093340
O1591	O159	0.286370	0.584530	0.026930
O1601	O160	0.342420	0.672940	0.125180
C5291	C529	0.232640	0.642740	0.069990
H2891	H289	0.209000	0.639700	0.062900
C5301	C530	0.263460	0.625660	0.059000
C5311	C531	0.257590	0.599490	0.035920
C5321	C532	0.298900	0.630350	0.069460
H2901	H290	0.319400	0.619100	0.061600
N1111	N111	0.206010	0.680890	0.104580
C5331	C533	0.303420	0.652000	0.091760
C5341	C534	0.341040	0.654440	0.105230
C5351	C535	0.272650	0.669160	0.103210
H2911	H291	0.275400	0.683500	0.118200
C5361	C536	0.238210	0.664470	0.091900
C5371	C537	0.171370	0.668260	0.105100
H2921	H292	0.162300	0.646600	0.097500
N1121	N112	0.209350	0.714590	0.116220
C5381	C538	0.152160	0.693760	0.119060
C5391	C539	0.112990	0.695370	0.127000
N1131	N113	0.176090	0.721990	0.124890
C5401	C540	0.092080	0.664940	0.125550
H2931	H293	0.102400	0.643300	0.118800
C5411	C541	0.096290	0.728000	0.134450
H2941	H294	0.109100	0.750500	0.134000
C5421	C542	0.059610	0.726200	0.142720
H2951	H295	0.048400	0.748100	0.148400
C5431	C543	0.055150	0.664500	0.133930
H2961	H296	0.041600	0.642500	0.133100
C5441	C544	0.039200	0.694800	0.143010
N1141	N114	0.000960	0.695550	0.150850
C5451	C545	0.990240	0.716000	0.172820
C5461	C546	0.010810	0.720500	0.193160
H2971	H297	0.034200	0.709300	0.193000
C5471	C547	0.959090	0.736000	0.172300
H2981	H298	0.943700	0.735300	0.157800
C5481	C548	0.974860	0.673200	0.137690
C5491	C549	0.944480	0.662300	0.147630
H2991	H299	0.939100	0.670200	0.164500
C5501	C550	0.001280	0.740550	0.215410
H3001	H300	0.017300	0.741200	0.229600
C5511	C551	0.970330	0.758000	0.216020
C5521	C552	0.949490	0.758400	0.193930
H3011	H301	0.928600	0.773600	0.193000
C5531	C553	0.921800	0.630600	0.111490
C5541	C554	0.917900	0.639000	0.135190
H3021	H302	0.897600	0.629900	0.144500
C5551	C555	0.948210	0.651100	0.096750
H3031	H303	0.947000	0.652700	0.078700
C5561	C556	0.976750	0.669300	0.111490
H3041	H304	0.997300	0.678800	0.102700
N1151	N115	0.955710	0.811260	0.274350
C5571	C557	0.977780	0.791410	0.259800
H3051	H305	0.002300	0.785400	0.263800
C5581	C558	0.960150	0.781200	0.238590
N1161	N116	0.845700	0.578120	0.084420
C5591	C559	0.858870	0.598420	0.103530
H3061	H306	0.845900	0.605600	0.118400
N1171	N117	0.870420	0.578510	0.063950
N1181	N118	0.900230	0.596800	0.072700
C5601	C560	0.893300	0.606900	0.098140
N1191	N119	0.925050	0.817000	0.261100
N1201	N120	0.927180	0.798500	0.239610
C5611	C561	0.000010	0.846560	0.334510
C5621	C562	0.995640	0.829140	0.310160
H3071	H307	0.015800	0.818100	0.301800
C5631	C563	0.930100	0.844640	0.310800
H3081	H308	0.906700	0.843300	0.303000
C5641	C564	0.960360	0.828830	0.298940
C5651	C565	0.739300	0.537480	0.068590
H3091	H309	0.715400	0.529800	0.064100
C5661	C566	0.744500	0.562550	0.088540
C5671	C567	0.770190	0.523600	0.055100
C5681	C568	0.779500	0.575720	0.094230
H3101	H310	0.783000	0.592900	0.107600
C5691	C569	0.804970	0.536420	0.060740
H3111	H311	0.825500	0.527200	0.051700
C5701	C570	0.809680	0.562890	0.079720
C5711	C571	0.901080	0.878950	0.348020
C5721	C572	0.036880	0.845870	0.348300
C5731	C573	0.969510	0.863340	0.345970
H3121	H312	0.972400	0.875400	0.361900
C5741	C574	0.934510	0.862600	0.334310
C5751	C575	0.711120	0.575980	0.103710
C5761	C576	0.764180	0.493940	0.034220
O1611	O161	0.039950	0.865800	0.367760
O1621	O162	0.908170	0.895610	0.368900
O1631	O163	0.062260	0.826680	0.338330
O1641	O164	0.870660	0.874400	0.337210
O1651	O165	0.679730	0.568600	0.094470
O1661	O166	0.717160	0.594850	0.123780
O1671	O167	0.731550	0.490260	0.027010
O1681	O168	0.792920	0.478330	0.026560
Zn251	Zn25	0.132760	0.083920	0.609860
Zn261	Zn26	0.176820	0.112110	0.646340
O1691	O169	0.099110	0.058250	0.580260
H3131	H313	0.080100	0.070600	0.578100
O1701	O170	0.211520	0.135250	0.676030
H3141	H314	0.204700	0.156600	0.679300
O1711	O171	0.096270	0.274490	0.527290
O1721	O172	0.138270	0.133050	0.593340
O1731	O173	0.084530	0.213630	0.526930
O1741	O174	0.172940	0.157580	0.625180
C5771	C577	0.142740	0.267360	0.569990
H3151	H315	0.139700	0.291000	0.562900
C5781	C578	0.125660	0.236540	0.559000
C5791	C579	0.099490	0.242410	0.535920
C5801	C580	0.130350	0.201100	0.569460
H3161	H316	0.119100	0.180600	0.561600
N1211	N121	0.180890	0.293990	0.604580
C5811	C581	0.152000	0.196580	0.591760
C5821	C582	0.154440	0.158960	0.605230
C5831	C583	0.169160	0.227350	0.603210
H3171	H317	0.183500	0.224600	0.618200
C5841	C584	0.164470	0.261790	0.591900
C5851	C585	0.168260	0.328630	0.605100
H3181	H318	0.146600	0.337700	0.597500
N1221	N122	0.214590	0.290650	0.616220
C5861	C586	0.193760	0.347840	0.619060
C5871	C587	0.195370	0.387010	0.627000
N1231	N123	0.221990	0.323910	0.624890
C5881	C588	0.164940	0.407920	0.625550
H3191	H319	0.143300	0.397600	0.618800
C5891	C589	0.228000	0.403710	0.634450
H3201	H320	0.250500	0.390900	0.634000
C5901	C590	0.226200	0.440390	0.642720
H3211	H321	0.248100	0.451600	0.648400
C5911	C591	0.164500	0.444850	0.633930
H3221	H322	0.142500	0.458400	0.633100
C5921	C592	0.194800	0.460800	0.643010
N1241	N124	0.195550	0.499040	0.650850
C5931	C593	0.216000	0.509760	0.672820
C5941	C594	0.220500	0.489190	0.693160
H3231	H323	0.209300	0.465800	0.693000
C5951	C595	0.236000	0.540910	0.672300
H3241	H324	0.235300	0.556300	0.657800
C5961	C596	0.173200	0.525140	0.637690
C5971	C597	0.162300	0.555520	0.647630
H3251	H325	0.170200	0.560900	0.664500
C5981	C598	0.240550	0.498720	0.715410
H3261	H326	0.241200	0.482700	0.729600
C5991	C599	0.258000	0.529670	0.716020
C6001	C600	0.258400	0.550510	0.693930
H3271	H327	0.273600	0.571400	0.693000
C6011	C601	0.130600	0.578200	0.611490
C6021	C602	0.139000	0.582100	0.635190
H3281	H328	0.129900	0.602400	0.644500
C6031	C603	0.151100	0.551790	0.596750
H3291	H329	0.152700	0.553000	0.578700
C6041	C604	0.169300	0.523250	0.611490
H3301	H330	0.178800	0.502700	0.602700
N1251	N125	0.311260	0.544290	0.774350
C6051	C605	0.291410	0.522220	0.759800
H3311	H331	0.285400	0.497700	0.763800
C6061	C606	0.281200	0.539850	0.738590
N1261	N126	0.078120	0.654300	0.584420
C6071	C607	0.098420	0.641130	0.603530
H3321	H332	0.105600	0.654100	0.618400
N1271	N127	0.078510	0.629580	0.563950
N1281	N128	0.096800	0.599770	0.572700
C6081	C608	0.106900	0.606700	0.598140
N1291	N129	0.317000	0.574950	0.761100
N1301	N130	0.298500	0.572820	0.739610
C6091	C609	0.346560	0.499990	0.834510
C6101	C610	0.329140	0.504360	0.810160
H3331	H333	0.318100	0.484200	0.801800
C6111	C611	0.344640	0.569900	0.810800
H3341	H334	0.343300	0.593300	0.803000
C6121	C612	0.328830	0.539640	0.798940
C6131	C613	0.037480	0.760700	0.568590
H3351	H335	0.029800	0.784600	0.564100
C6141	C614	0.062550	0.755500	0.588540
C6151	C615	0.023600	0.729810	0.555100
C6161	C616	0.075720	0.720500	0.594230
H3361	H336	0.092900	0.717000	0.607600
C6171	C617	0.036420	0.695030	0.560740
H3371	H337	0.027200	0.674500	0.551700
C6181	C618	0.062890	0.690320	0.579720
C6191	C619	0.378950	0.598920	0.848020
C6201	C620	0.345870	0.463120	0.848300
C6211	C621	0.363340	0.530490	0.845970
H3381	H338	0.375400	0.527600	0.861900
C6221	C622	0.362600	0.565490	0.834310
C6231	C623	0.075980	0.788880	0.603710
C6241	C624	0.993940	0.735820	0.534220
O1751	O175	0.365800	0.460050	0.867760
O1761	O176	0.395610	0.591830	0.868900
O1771	O177	0.326680	0.437740	0.838330
O1781	O178	0.374400	0.629340	0.837210
O1791	O179	0.068600	0.820270	0.594470
O1801	O180	0.094850	0.782840	0.623780
O1811	O181	0.990260	0.768450	0.527010
O1821	O182	0.978330	0.707080	0.526560
Zn271	Zn27	0.632760	0.583920	0.109860
Zn281	Zn28	0.676820	0.612110	0.146340
O1831	O183	0.599110	0.558250	0.080260
H3391	H339	0.580100	0.570600	0.078100
O1841	O184	0.711520	0.635250	0.176030
H3401	H340	0.704700	0.656600	0.179300
O1851	O185	0.596270	0.774490	0.027290
O1861	O186	0.638270	0.633050	0.093340
O1871	O187	0.584530	0.713630	0.026930
O1881	O188	0.672940	0.657580	0.125180
C6251	C625	0.642740	0.767360	0.069990
H3411	H341	0.639700	0.791000	0.062900
C6261	C626	0.625660	0.736540	0.059000
C6271	C627	0.599490	0.742410	0.035920
C6281	C628	0.630350	0.701100	0.069460
H3421	H342	0.619100	0.680600	0.061600
N1311	N131	0.680890	0.793990	0.104580
C6291	C629	0.652000	0.696580	0.091760
C6301	C630	0.654440	0.658960	0.105230
C6311	C631	0.669160	0.727350	0.103210
H3431	H343	0.683500	0.724600	0.118200
C6321	C632	0.664470	0.761790	0.091900
C6331	C633	0.668260	0.828630	0.105100
H3441	H344	0.646600	0.837700	0.097500
N1321	N132	0.714590	0.790650	0.116220
C6341	C634	0.693760	0.847840	0.119060
C6351	C635	0.695370	0.887010	0.127000
N1331	N133	0.721990	0.823910	0.124890
C6361	C636	0.664940	0.907920	0.125550
H3451	H345	0.643300	0.897600	0.118800
C6371	C637	0.728000	0.903710	0.134450
H3461	H346	0.750500	0.890900	0.134000
C6381	C638	0.726200	0.940390	0.142720
H3471	H347	0.748100	0.951600	0.148400
C6391	C639	0.664500	0.944850	0.133930
H3481	H348	0.642500	0.958400	0.133100
C6401	C640	0.694800	0.960800	0.143010
N1341	N134	0.695550	0.999040	0.150850
C6411	C641	0.716000	0.009760	0.172820
C6421	C642	0.720500	0.989190	0.193160
H3491	H349	0.709300	0.965800	0.193000
C6431	C643	0.736000	0.040910	0.172300
H3501	H350	0.735300	0.056300	0.157800
C6441	C644	0.673200	0.025140	0.137690
C6451	C645	0.662300	0.055520	0.147630
H3511	H351	0.670200	0.060900	0.164500
C6461	C646	0.740550	0.998720	0.215410
H3521	H352	0.741200	0.982700	0.229600
C6471	C647	0.758000	0.029670	0.216020
C6481	C648	0.758400	0.050510	0.193930
H3531	H353	0.773600	0.071400	0.193000
C6491	C649	0.630600	0.078200	0.111490
C6501	C650	0.639000	0.082100	0.135190
H3541	H354	0.629900	0.102400	0.144500
C6511	C651	0.651100	0.051790	0.096750
H3551	H355	0.652700	0.053000	0.078700
C6521	C652	0.669300	0.023250	0.111490
H3561	H356	0.678800	0.002700	0.102700
N1351	N135	0.811260	0.044290	0.274350
C6531	C653	0.791410	0.022220	0.259800
H3571	H357	0.785400	0.997700	0.263800
C6541	C654	0.781200	0.039850	0.238590
N1361	N136	0.578120	0.154300	0.084420
C6551	C655	0.598420	0.141130	0.103530
H3581	H358	0.605600	0.154100	0.118400
N1371	N137	0.578510	0.129580	0.063950
N1381	N138	0.596800	0.099770	0.072700
C6561	C656	0.606900	0.106700	0.098140
N1391	N139	0.817000	0.074950	0.261100
N1401	N140	0.798500	0.072820	0.239610
C6571	C657	0.846560	0.999990	0.334510
C6581	C658	0.829140	0.004360	0.310160
H3591	H359	0.818100	0.984200	0.301800
C6591	C659	0.844640	0.069900	0.310800
H3601	H360	0.843300	0.093300	0.303000
C6601	C660	0.828830	0.039640	0.298940
C6611	C661	0.537480	0.260700	0.068590
H3611	H361	0.529800	0.284600	0.064100
C6621	C662	0.562550	0.255500	0.088540
C6631	C663	0.523600	0.229810	0.055100
C6641	C664	0.575720	0.220500	0.094230
H3621	H362	0.592900	0.217000	0.107600
C6651	C665	0.536420	0.195030	0.060740
H3631	H363	0.527200	0.174500	0.051700
C6661	C666	0.562890	0.190320	0.079720
C6671	C667	0.878950	0.098920	0.348020
C6681	C668	0.845870	0.963120	0.348300
C6691	C669	0.863340	0.030490	0.345970
H3641	H364	0.875400	0.027600	0.361900
C6701	C670	0.862600	0.065490	0.334310
C6711	C671	0.575980	0.288880	0.103710
C6721	C672	0.493940	0.235820	0.034220
O1891	O189	0.865800	0.960050	0.367760
O1901	O190	0.895610	0.091830	0.368900
O1911	O191	0.826680	0.937740	0.338330
O1921	O192	0.874400	0.129340	0.337210
O1931	O193	0.568600	0.320270	0.094470
O1941	O194	0.594850	0.282840	0.123780
O1951	O195	0.490260	0.268450	0.027010
O1961	O196	0.478330	0.207080	0.026560
Zn291	Zn29	0.867240	0.916080	0.609860
Zn301	Zn30	0.823180	0.887890	0.646340
O1971	O197	0.900890	0.941750	0.580260
H3651	H365	0.919900	0.929400	0.578100
O1981	O198	0.788480	0.864750	0.676030
H3661	H366	0.795300	0.843400	0.679300
O1991	O199	0.903730	0.725510	0.527290
O2001	O200	0.861730	0.866950	0.593340
O2011	O201	0.915470	0.786370	0.526930
O2021	O202	0.827060	0.842420	0.625180
C6731	C673	0.857260	0.732640	0.569990
H3671	H367	0.860300	0.709000	0.562900
C6741	C674	0.874340	0.763460	0.559000
C6751	C675	0.900510	0.757590	0.535920
C6761	C676	0.869650	0.798900	0.569460
H3681	H368	0.880900	0.819400	0.561600
N1411	N141	0.819110	0.706010	0.604580
C6771	C677	0.848000	0.803420	0.591760
C6781	C678	0.845560	0.841040	0.605230
C6791	C679	0.830840	0.772650	0.603210
H3691	H369	0.816500	0.775400	0.618200
C6801	C680	0.835530	0.738210	0.591900
C6811	C681	0.831740	0.671370	0.605100
H3701	H370	0.853400	0.662300	0.597500
N1421	N142	0.785410	0.709350	0.616220
C6821	C682	0.806240	0.652160	0.619060
C6831	C683	0.804630	0.612990	0.627000
N1431	N143	0.778010	0.676090	0.624890
C6841	C684	0.835060	0.592080	0.625550
H3711	H371	0.856700	0.602400	0.618800
C6851	C685	0.772000	0.596290	0.634450
H3721	H372	0.749500	0.609100	0.634000
C6861	C686	0.773800	0.559610	0.642720
H3731	H373	0.751900	0.548400	0.648400
C6871	C687	0.835500	0.555150	0.633930
H3741	H374	0.857500	0.541600	0.633100
C6881	C688	0.805200	0.539200	0.643010
N1441	N144	0.804450	0.500960	0.650850
C6891	C689	0.784000	0.490240	0.672820
C6901	C690	0.779500	0.510810	0.693160
H3751	H375	0.790700	0.534200	0.693000
C6911	C691	0.764000	0.459090	0.672300
H3761	H376	0.764700	0.443700	0.657800
C6921	C692	0.826800	0.474860	0.637690
C6931	C693	0.837700	0.444480	0.647630
H3771	H377	0.829800	0.439100	0.664500
C6941	C694	0.759450	0.501280	0.715410
H3781	H378	0.758800	0.517300	0.729600
C6951	C695	0.742000	0.470330	0.716020
C6961	C696	0.741600	0.449490	0.693930
H3791	H379	0.726400	0.428600	0.693000
C6971	C697	0.869400	0.421800	0.611490
C6981	C698	0.861000	0.417900	0.635190
H3801	H380	0.870100	0.397600	0.644500
C6991	C699	0.848900	0.448210	0.596750
H3811	H381	0.847300	0.447000	0.578700
C7001	C700	0.830700	0.476750	0.611490
H3821	H382	0.821200	0.497300	0.602700
N1451	N145	0.688740	0.455710	0.774350
C7011	C701	0.708590	0.477780	0.759800
H3831	H383	0.714600	0.502300	0.763800
C7021	C702	0.718800	0.460150	0.738590
N1461	N146	0.921880	0.345700	0.584420
C7031	C703	0.901580	0.358870	0.603530
H3841	H384	0.894400	0.345900	0.618400
N1471	N147	0.921490	0.370420	0.563950
N1481	N148	0.903200	0.400230	0.572700
C7041	C704	0.893100	0.393300	0.598140
N1491	N149	0.683000	0.425050	0.761100
N1501	N150	0.701500	0.427180	0.739610
C7051	C705	0.653440	0.500010	0.834510
C7061	C706	0.670860	0.495640	0.810160
H3851	H385	0.681900	0.515800	0.801800
C7071	C707	0.655360	0.430100	0.810800
H3861	H386	0.656700	0.406700	0.803000
C7081	C708	0.671170	0.460360	0.798940
C7091	C709	0.962520	0.239300	0.568590
H3871	H387	0.970200	0.215400	0.564100
C7101	C710	0.937450	0.244500	0.588540
C7111	C711	0.976400	0.270190	0.555100
C7121	C712	0.924280	0.279500	0.594230
H3881	H388	0.907100	0.283000	0.607600
C7131	C713	0.963580	0.304970	0.560740
H3891	H389	0.972800	0.325500	0.551700
C7141	C714	0.937110	0.309680	0.579720
C7151	C715	0.621050	0.401080	0.848020
C7161	C716	0.654130	0.536880	0.848300
C7171	C717	0.636660	0.469510	0.845970
H3901	H390	0.624600	0.472400	0.861900
C7181	C718	0.637400	0.434510	0.834310
C7191	C719	0.924020	0.211120	0.603710
C7201	C720	0.006060	0.264180	0.534220
O2031	O203	0.634200	0.539950	0.867760
O2041	O204	0.604390	0.408170	0.868900
O2051	O205	0.673320	0.562260	0.838330
O2061	O206	0.625600	0.370660	0.837210
O2071	O207	0.931400	0.179730	0.594470
O2081	O208	0.905150	0.217160	0.623780
O2091	O209	0.009740	0.231550	0.527010
O2101	O210	0.021670	0.292920	0.526560
Zn311	Zn31	0.367240	0.416080	0.109860
Zn321	Zn32	0.323180	0.387890	0.146340
O2111	O211	0.400890	0.441750	0.080260
H3911	H391	0.419900	0.429400	0.078100
O2121	O212	0.288480	0.364750	0.176030
H3921	H392	0.295300	0.343400	0.179300
O2131	O213	0.403730	0.225510	0.027290
O2141	O214	0.361730	0.366950	0.093340
O2151	O215	0.415470	0.286370	0.026930
O2161	O216	0.327060	0.342420	0.125180
C7211	C721	0.357260	0.232640	0.069990
H3931	H393	0.360300	0.209000	0.062900
C7221	C722	0.374340	0.263460	0.059000
C7231	C723	0.400510	0.257590	0.035920
C7241	C724	0.369650	0.298900	0.069460
H3941	H394	0.380900	0.319400	0.061600
N1511	N151	0.319110	0.206010	0.104580
C7251	C725	0.348000	0.303420	0.091760
C7261	C726	0.345560	0.341040	0.105230
C7271	C727	0.330840	0.272650	0.103210
H3951	H395	0.316500	0.275400	0.118200
C7281	C728	0.335530	0.238210	0.091900
C7291	C729	0.331740	0.171370	0.105100
H3961	H396	0.353400	0.162300	0.097500
N1521	N152	0.285410	0.209350	0.116220
C7301	C730	0.306240	0.152160	0.119060
C7311	C731	0.304630	0.112990	0.127000
N1531	N153	0.278010	0.176090	0.124890
C7321	C732	0.335060	0.092080	0.125550
H3971	H397	0.356700	0.102400	0.118800
C7331	C733	0.272000	0.096290	0.134450
H3981	H398	0.249500	0.109100	0.134000
C7341	C734	0.273800	0.059610	0.142720
H3991	H399	0.251900	0.048400	0.148400
C7351	C735	0.335500	0.055150	0.133930
H4001	H400	0.357500	0.041600	0.133100
C7361	C736	0.305200	0.039200	0.143010
N1541	N154	0.304450	0.000960	0.150850
C7371	C737	0.284000	0.990240	0.172820
C7381	C738	0.279500	0.010810	0.193160
H4011	H401	0.290700	0.034200	0.193000
C7391	C739	0.264000	0.959090	0.172300
H4021	H402	0.264700	0.943700	0.157800
C7401	C740	0.326800	0.974860	0.137690
C7411	C741	0.337700	0.944480	0.147630
H4031	H403	0.329800	0.939100	0.164500
C7421	C742	0.259450	0.001280	0.215410
H4041	H404	0.258800	0.017300	0.229600
C7431	C743	0.242000	0.970330	0.216020
C7441	C744	0.241600	0.949490	0.193930
H4051	H405	0.226400	0.928600	0.193000
C7451	C745	0.369400	0.921800	0.111490
C7461	C746	0.361000	0.917900	0.135190
H4061	H406	0.370100	0.897600	0.144500
C7471	C747	0.348900	0.948210	0.096750
H4071	H407	0.347300	0.947000	0.078700
C7481	C748	0.330700	0.976750	0.111490
H4081	H408	0.321200	0.997300	0.102700
N1551	N155	0.188740	0.955710	0.274350
C7491	C749	0.208590	0.977780	0.259800
H4091	H409	0.214600	0.002300	0.263800
C7501	C750	0.218800	0.960150	0.238590
N1561	N156	0.421880	0.845700	0.084420
C7511	C751	0.401580	0.858870	0.103530
H4101	H410	0.394400	0.845900	0.118400
N1571	N157	0.421490	0.870420	0.063950
N1581	N158	0.403200	0.900230	0.072700
C7521	C752	0.393100	0.893300	0.098140
N1591	N159	0.183000	0.925050	0.261100
N1601	N160	0.201500	0.927180	0.239610
C7531	C753	0.153440	0.000010	0.334510
C7541	C754	0.170860	0.995640	0.310160
H4111	H411	0.181900	0.015800	0.301800
C7551	C755	0.155360	0.930100	0.310800
H4121	H412	0.156700	0.906700	0.303000
C7561	C756	0.171170	0.960360	0.298940
C7571	C757	0.462520	0.739300	0.068590
H4131	H413	0.470200	0.715400	0.064100
C7581	C758	0.437450	0.744500	0.088540
C7591	C759	0.476400	0.770190	0.055100
C7601	C760	0.424280	0.779500	0.094230
H4141	H414	0.407100	0.783000	0.107600
C7611	C761	0.463580	0.804970	0.060740
H4151	H415	0.472800	0.825500	0.051700
C7621	C762	0.437110	0.809680	0.079720
C7631	C763	0.121050	0.901080	0.348020
C7641	C764	0.154130	0.036880	0.348300
C7651	C765	0.136660	0.969510	0.345970
H4161	H416	0.124600	0.972400	0.361900
C7661	C766	0.137400	0.934510	0.334310
C7671	C767	0.424020	0.711120	0.103710
C7681	C768	0.506060	0.764180	0.034220
O2171	O217	0.134200	0.039950	0.367760
O2181	O218	0.104390	0.908170	0.368900
O2191	O219	0.173320	0.062260	0.338330
O2201	O220	0.125600	0.870660	0.337210
O2211	O221	0.431400	0.679730	0.094470
O2221	O222	0.405150	0.717160	0.123780
O2231	O223	0.509740	0.731550	0.027010
O2241	O224	0.521670	0.792920	0.026560
Zn331	Zn33	0.783220	0.046380	0.500000
Zn341	Zn34	0.710780	0.061460	0.500000
Zn351	Zn35	0.283220	0.546380	0.000000
Zn361	Zn36	0.210780	0.561460	0.000000
Zn371	Zn37	0.216780	0.953620	0.500000
Zn381	Zn38	0.289220	0.938540	0.500000
Zn391	Zn39	0.716780	0.453620	0.000000
Zn401	Zn40	0.789220	0.438540	0.000000
Zn411	Zn41	0.953620	0.783220	0.500000
Zn421	Zn42	0.938540	0.710780	0.500000
Zn431	Zn43	0.453620	0.283220	0.000000
Zn441	Zn44	0.438540	0.210780	0.000000
Zn451	Zn45	0.046380	0.216780	0.500000
Zn461	Zn46	0.061460	0.289220	0.500000
Zn471	Zn47	0.546380	0.716780	0.000000
Zn481	Zn48	0.561460	0.789220	0.000000
