data_YUZSUH_clean_PM
_symmetry_space_group_name_H-M	'P1'
_cell_length_a	17.399000
_cell_length_b	9.479000
_cell_length_c	7.055000
_cell_angle_alpha	90.000000
_cell_angle_beta	108.026000
_cell_angle_gamma	90.000000
_symmetry_Int_Tables_number 1

loop_
_symmetry_equiv_pos_as_xyz
'x,y,z'

loop_
_atom_site_label
_atom_site_type_symbol
_atom_site_fract_x
_atom_site_fract_y
_atom_site_fract_z
P11	P1	0.736430	0.300950	0.684460
P21	P2	0.001060	0.204650	0.000070
O11	O1	0.737270	0.137400	0.685400
O21	O2	0.992430	0.362700	0.980900
O31	O3	0.826320	0.344700	0.775100
O41	O4	0.701810	0.354100	0.472100
O51	O5	0.049440	0.156500	0.208000
O61	O6	0.688900	0.351500	0.818400
O71	O7	0.034800	0.146600	0.844200
O81	O8	0.913680	0.144500	0.957800
H11	H1	0.882000	0.209000	0.897000
P31	P3	0.236430	0.800950	0.684460
P41	P4	0.501060	0.704650	0.000070
O91	O9	0.237270	0.637400	0.685400
O101	O10	0.492430	0.862700	0.980900
O111	O11	0.326320	0.844700	0.775100
O121	O12	0.201810	0.854100	0.472100
O131	O13	0.549440	0.656500	0.208000
O141	O14	0.188900	0.851500	0.818400
O151	O15	0.534800	0.646600	0.844200
O161	O16	0.413680	0.644500	0.957800
H21	H2	0.382000	0.709000	0.897000
P51	P5	0.736430	0.699050	0.684460
P61	P6	0.001060	0.795350	0.000070
O171	O17	0.737270	0.862600	0.685400
O181	O18	0.992430	0.637300	0.980900
O191	O19	0.826320	0.655300	0.775100
O201	O20	0.701810	0.645900	0.472100
O211	O21	0.049440	0.843500	0.208000
O221	O22	0.688900	0.648500	0.818400
O231	O23	0.034800	0.853400	0.844200
O241	O24	0.913680	0.855500	0.957800
H31	H3	0.882000	0.791000	0.897000
P71	P7	0.236430	0.199050	0.684460
P81	P8	0.501060	0.295350	0.000070
O251	O25	0.237270	0.362600	0.685400
O261	O26	0.492430	0.137300	0.980900
O271	O27	0.326320	0.155300	0.775100
O281	O28	0.201810	0.145900	0.472100
O291	O29	0.549440	0.343500	0.208000
O301	O30	0.188900	0.148500	0.818400
O311	O31	0.534800	0.353400	0.844200
O321	O32	0.413680	0.355500	0.957800
H41	H4	0.382000	0.291000	0.897000
V11	V1	0.650300	0.000000	0.562200
V21	V2	0.150300	0.500000	0.562200
V31	V3	0.908060	0.500000	0.831120
V41	V4	0.632150	0.500000	0.310550
V51	V5	0.607960	0.500000	0.793820
O331	O33	0.664400	0.500000	0.118700
O341	O34	0.571700	0.500000	0.551000
V61	V6	0.408060	0.000000	0.831120
V71	V7	0.132150	0.000000	0.310550
V81	V8	0.107960	0.000000	0.793820
O351	O35	0.164400	0.000000	0.118700
O361	O36	0.071700	0.000000	0.551000
