data_YUZSUH01_clean_PM
_symmetry_space_group_name_H-M	'P1'
_cell_length_a	7.025000
_cell_length_b	9.470000
_cell_length_c	16.570000
_cell_angle_alpha	90.000000
_cell_angle_beta	96.030000
_cell_angle_gamma	90.000000
_symmetry_Int_Tables_number 1

loop_
_symmetry_equiv_pos_as_xyz
'x,y,z'

loop_
_atom_site_label
_atom_site_type_symbol
_atom_site_fract_x
_atom_site_fract_y
_atom_site_fract_z
P11	P1	0.561300	0.198800	0.511300
P21	P2	0.508400	0.294900	0.775800
O11	O1	0.563200	0.154100	0.601100
O21	O2	0.520600	0.135500	0.768300
O31	O3	0.560100	0.362100	0.512500
O41	O4	0.346300	0.342700	0.823300
O51	O5	0.737400	0.145400	0.476300
O61	O6	0.698900	0.350400	0.811300
O71	O7	0.378900	0.147700	0.463900
O81	O8	0.464100	0.353300	0.687100
P31	P3	0.061300	0.698800	0.011300
P41	P4	0.008400	0.794900	0.275800
O91	O9	0.063200	0.654100	0.101100
O101	O10	0.020600	0.635500	0.268300
O111	O11	0.060100	0.862100	0.012500
O121	O12	0.846300	0.842700	0.323300
O131	O13	0.237400	0.645400	0.976300
O141	O14	0.198900	0.850400	0.311300
O151	O15	0.878900	0.647700	0.963900
O161	O16	0.964100	0.853300	0.187100
P51	P5	0.561300	0.801200	0.511300
P61	P6	0.508400	0.705100	0.775800
O171	O17	0.563200	0.845900	0.601100
O181	O18	0.520600	0.864500	0.768300
O191	O19	0.560100	0.637900	0.512500
O201	O20	0.346300	0.657300	0.823300
O211	O21	0.737400	0.854600	0.476300
O221	O22	0.698900	0.649600	0.811300
O231	O23	0.378900	0.852300	0.463900
O241	O24	0.464100	0.646700	0.687100
P71	P7	0.061300	0.301200	0.011300
P81	P8	0.008400	0.205100	0.275800
O251	O25	0.063200	0.345900	0.101100
O261	O26	0.020600	0.364500	0.268300
O271	O27	0.060100	0.137900	0.012500
O281	O28	0.846300	0.157300	0.323300
O291	O29	0.237400	0.354600	0.976300
O301	O30	0.198900	0.149600	0.311300
O311	O31	0.878900	0.352300	0.963900
O321	O32	0.964100	0.146700	0.187100
V11	V1	0.587400	0.000000	0.683200
V21	V2	0.087400	0.500000	0.183200
V31	V3	0.596700	0.500000	0.425400
V41	V4	0.328500	0.500000	0.905600
V51	V5	0.822400	0.500000	0.883400
O331	O33	0.555100	0.500000	0.936000
O341	O34	0.033400	0.500000	0.849100
V61	V6	0.096700	0.000000	0.925400
V71	V7	0.828500	0.000000	0.405600
V81	V8	0.322400	0.000000	0.383400
O351	O35	0.055100	0.000000	0.436000
O361	O36	0.533400	0.000000	0.349100
