data_ZABQIC_ion_b_PM
_symmetry_space_group_name_H-M	'P1'
_cell_length_a	11.592000
_cell_length_b	19.099200
_cell_length_c	38.748100
_cell_angle_alpha	90.000000
_cell_angle_beta	90.000000
_cell_angle_gamma	90.000000
_symmetry_Int_Tables_number 1

loop_
_symmetry_equiv_pos_as_xyz
'x,y,z'

loop_
_atom_site_label
_atom_site_type_symbol
_atom_site_fract_x
_atom_site_fract_y
_atom_site_fract_z
Ag11	Ag1	0.200600	0.534100	0.256600
S21	S2	0.359800	0.680200	0.225300
F31	F3	0.204200	0.763500	0.240400
F41	F4	0.295500	0.799100	0.206600
F51	F5	0.362200	0.791100	0.260400
O61	O6	0.316600	0.640500	0.258400
O71	O7	0.303400	0.661700	0.194600
O81	O8	0.480200	0.678500	0.218900
N91	N9	0.253800	0.438300	0.284900
N101	N10	0.670500	0.987900	0.703800
N111	N11	0.064100	0.596200	0.283800
N121	N12	0.392600	0.568100	0.325100
C131	C13	0.310600	0.775000	0.232600
C141	C14	0.607500	0.064400	0.444000
C151	C15	0.601800	0.072500	0.409100
C161	C16	0.545800	0.128300	0.390200
C171	C17	0.499800	0.178700	0.374000
C181	C18	0.445900	0.232700	0.357700
C191	C19	0.414200	0.293500	0.373900
C201	C20	0.365600	0.349100	0.353900
C211	C21	0.358000	0.339300	0.320000
C221	C22	0.301900	0.395700	0.303200
C231	C23	0.389800	0.280800	0.305300
C241	C24	0.435300	0.227800	0.324800
C251	C25	0.656400	0.021200	0.387500
C261	C26	0.716100	0.961100	0.402400
C271	C27	0.770500	0.910900	0.382300
C281	C28	0.818000	0.867300	0.366400
C291	C29	0.867100	0.807600	0.349600
C301	C30	0.881000	0.820400	0.314000
C311	C31	0.933400	0.761500	0.293400
C321	C32	0.964900	0.697200	0.314300
C331	C33	0.026500	0.639200	0.295800
C341	C34	0.949700	0.694300	0.350100
C351	C35	0.895600	0.748400	0.366500
C361	C36	0.714400	0.957100	0.438400
C371	C37	0.658300	0.010000	0.460000
C381	C38	0.664000	0.004900	0.494900
C391	C39	0.667700	0.999500	0.525800
C401	C40	0.671800	0.996400	0.563900
C411	C41	0.700700	0.938700	0.580100
C421	C42	0.712800	0.936300	0.615600
C431	C43	0.673200	0.994200	0.634500
C441	C44	0.674500	0.990700	0.675700
C451	C45	0.638900	0.052300	0.616100
C461	C46	0.630700	0.054200	0.582700
C471	C47	0.039600	0.945000	0.436500
C481	C48	0.087700	0.885600	0.418900
C491	C49	0.127400	0.835300	0.403700
C501	C50	0.186000	0.782300	0.388100
C511	C51	0.223500	0.725400	0.405700
C521	C52	0.281300	0.664000	0.391600
C531	C53	0.293200	0.666800	0.355700
C541	C54	0.349800	0.613400	0.335800
C551	C55	0.259800	0.720100	0.335500
C561	C56	0.203100	0.784100	0.352200
C571	C57	0.041900	0.941900	0.474500
C581	C58	0.024000	0.934600	0.650900
C591	C59	0.023000	0.940500	0.615800
H681	H68	0.574100	0.098900	0.457700
H691	H69	0.424100	0.298600	0.397500
H701	H70	0.340500	0.390300	0.364200
H711	H71	0.381600	0.275200	0.281600
H721	H72	0.459300	0.187000	0.313800
H731	H73	0.653600	0.026300	0.363600
H741	H74	0.859100	0.862500	0.303800
H751	H75	0.945500	0.764400	0.269700
H761	H76	0.976200	0.656000	0.362500
H771	H77	0.878000	0.744200	0.389800
H781	H78	0.750400	0.919400	0.449100
H791	H79	0.713500	0.898200	0.567300
H801	H80	0.745800	0.897900	0.626500
H811	H81	0.620500	0.092600	0.628400
H821	H82	0.598600	0.092600	0.571500
H831	H83	0.211000	0.725600	0.429400
H841	H84	0.307500	0.627000	0.405100
H851	H85	0.270800	0.718200	0.311700
H861	H86	0.180900	0.822600	0.339200
H871	H87	0.070000	0.903000	0.486200
H881	H88	0.038100	0.894100	0.663600
H891	H89	0.039700	0.899900	0.603600
Ag961	Ag96	0.799400	0.465900	0.256600
S971	S97	0.640200	0.319800	0.225300
F981	F98	0.795800	0.236500	0.240400
F991	F99	0.704500	0.200900	0.206600
F1001	F100	0.637800	0.208900	0.260400
O1011	O101	0.683400	0.359500	0.258400
O1021	O102	0.696600	0.338300	0.194600
O1031	O103	0.519800	0.321500	0.218900
N1041	N104	0.746200	0.561700	0.284900
N1051	N105	0.329500	0.012100	0.703800
N1061	N106	0.935900	0.403800	0.283800
N1071	N107	0.607400	0.431900	0.325100
C1081	C108	0.689400	0.225000	0.232600
C1091	C109	0.392500	0.935600	0.444000
C1101	C110	0.398200	0.927500	0.409100
C1111	C111	0.454200	0.871700	0.390200
C1121	C112	0.500200	0.821300	0.374000
C1131	C113	0.554100	0.767300	0.357700
C1141	C114	0.585800	0.706500	0.373900
C1151	C115	0.634400	0.650900	0.353900
C1161	C116	0.642000	0.660700	0.320000
C1171	C117	0.698100	0.604300	0.303200
C1181	C118	0.610200	0.719200	0.305300
C1191	C119	0.564700	0.772200	0.324800
C1201	C120	0.343600	0.978800	0.387500
C1211	C121	0.283900	0.038900	0.402400
C1221	C122	0.229500	0.089100	0.382300
C1231	C123	0.182000	0.132700	0.366400
C1241	C124	0.132900	0.192400	0.349600
C1251	C125	0.119000	0.179600	0.314000
C1261	C126	0.066600	0.238500	0.293400
C1271	C127	0.035100	0.302800	0.314300
C1281	C128	0.973500	0.360800	0.295800
C1291	C129	0.050300	0.305700	0.350100
C1301	C130	0.104400	0.251600	0.366500
C1311	C131	0.285600	0.042900	0.438400
C1321	C132	0.341700	0.990000	0.460000
C1331	C133	0.336000	0.995100	0.494900
C1341	C134	0.332300	0.000500	0.525800
C1351	C135	0.328200	0.003600	0.563900
C1361	C136	0.299300	0.061300	0.580100
C1371	C137	0.287200	0.063700	0.615600
C1381	C138	0.326800	0.005800	0.634500
C1391	C139	0.325500	0.009300	0.675700
C1401	C140	0.361100	0.947700	0.616100
C1411	C141	0.369300	0.945800	0.582700
C1421	C142	0.960400	0.055000	0.436500
C1431	C143	0.912300	0.114400	0.418900
C1441	C144	0.872600	0.164700	0.403700
C1451	C145	0.814000	0.217700	0.388100
C1461	C146	0.776500	0.274600	0.405700
C1471	C147	0.718700	0.336000	0.391600
C1481	C148	0.706800	0.333200	0.355700
C1491	C149	0.650200	0.386600	0.335800
C1501	C150	0.740200	0.279900	0.335500
C1511	C151	0.796900	0.215900	0.352200
C1521	C152	0.958100	0.058100	0.474500
C1531	C153	0.976000	0.065400	0.650900
C1541	C154	0.977000	0.059500	0.615800
H1631	H163	0.425900	0.901100	0.457700
H1641	H164	0.575900	0.701400	0.397500
H1651	H165	0.659500	0.609700	0.364200
H1661	H166	0.618400	0.724800	0.281600
H1671	H167	0.540700	0.813000	0.313800
H1681	H168	0.346400	0.973700	0.363600
H1691	H169	0.140900	0.137500	0.303800
H1701	H170	0.054500	0.235600	0.269700
H1711	H171	0.023800	0.344000	0.362500
H1721	H172	0.122000	0.255800	0.389800
H1731	H173	0.249600	0.080600	0.449100
H1741	H174	0.286500	0.101800	0.567300
H1751	H175	0.254200	0.102100	0.626500
H1761	H176	0.379500	0.907400	0.628400
H1771	H177	0.401400	0.907400	0.571500
H1781	H178	0.789000	0.274400	0.429400
H1791	H179	0.692500	0.373000	0.405100
H1801	H180	0.729200	0.281800	0.311700
H1811	H181	0.819100	0.177400	0.339200
H1821	H182	0.930000	0.097000	0.486200
H1831	H183	0.961900	0.105900	0.663600
H1841	H184	0.960300	0.100100	0.603600
Ag1911	Ag191	0.700600	0.965900	0.756600
S1921	S192	0.859800	0.819800	0.725300
F1931	F193	0.704200	0.736500	0.740400
F1941	F194	0.795500	0.700900	0.706600
F1951	F195	0.862200	0.708900	0.760400
O1961	O196	0.816600	0.859500	0.758400
O1971	O197	0.803400	0.838300	0.694600
O1981	O198	0.980200	0.821500	0.718900
N1991	N199	0.753800	0.061700	0.784900
N2001	N200	0.170500	0.512100	0.203800
N2011	N201	0.564100	0.903800	0.783800
N2021	N202	0.892600	0.931900	0.825100
C2031	C203	0.810600	0.725000	0.732600
C2041	C204	0.107500	0.435600	0.944000
C2051	C205	0.101800	0.427500	0.909100
C2061	C206	0.045800	0.371700	0.890200
C2071	C207	0.999800	0.321300	0.874000
C2081	C208	0.945900	0.267300	0.857700
C2091	C209	0.914200	0.206500	0.873900
C2101	C210	0.865600	0.150900	0.853900
C2111	C211	0.858000	0.160700	0.820000
C2121	C212	0.801900	0.104300	0.803200
C2131	C213	0.889800	0.219200	0.805300
C2141	C214	0.935300	0.272200	0.824800
C2151	C215	0.156400	0.478800	0.887500
C2161	C216	0.216100	0.538900	0.902400
C2171	C217	0.270500	0.589100	0.882300
C2181	C218	0.318000	0.632700	0.866400
C2191	C219	0.367100	0.692400	0.849600
C2201	C220	0.381000	0.679600	0.814000
C2211	C221	0.433400	0.738500	0.793400
C2221	C222	0.464900	0.802800	0.814300
C2231	C223	0.526500	0.860800	0.795800
C2241	C224	0.449700	0.805700	0.850100
C2251	C225	0.395600	0.751600	0.866500
C2261	C226	0.214400	0.542900	0.938400
C2271	C227	0.158300	0.490000	0.960000
C2281	C228	0.164000	0.495100	0.994900
C2291	C229	0.167700	0.500500	0.025800
C2301	C230	0.171800	0.503600	0.063900
C2311	C231	0.200700	0.561300	0.080100
C2321	C232	0.212800	0.563700	0.115600
C2331	C233	0.173200	0.505800	0.134500
C2341	C234	0.174500	0.509300	0.175700
C2351	C235	0.138900	0.447700	0.116100
C2361	C236	0.130700	0.445800	0.082700
C2371	C237	0.539600	0.555000	0.936500
C2381	C238	0.587700	0.614400	0.918900
C2391	C239	0.627400	0.664700	0.903700
C2401	C240	0.686000	0.717700	0.888100
C2411	C241	0.723500	0.774600	0.905700
C2421	C242	0.781300	0.836000	0.891600
C2431	C243	0.793200	0.833200	0.855700
C2441	C244	0.849800	0.886600	0.835800
C2451	C245	0.759800	0.779900	0.835500
C2461	C246	0.703100	0.715900	0.852200
C2471	C247	0.541900	0.558100	0.974500
C2481	C248	0.524000	0.565400	0.150900
C2491	C249	0.523000	0.559500	0.115800
H2581	H258	0.074100	0.401100	0.957700
H2591	H259	0.924100	0.201400	0.897500
H2601	H260	0.840500	0.109700	0.864200
H2611	H261	0.881600	0.224800	0.781600
H2621	H262	0.959300	0.313000	0.813800
H2631	H263	0.153600	0.473700	0.863600
H2641	H264	0.359100	0.637500	0.803800
H2651	H265	0.445500	0.735600	0.769700
H2661	H266	0.476200	0.844000	0.862500
H2671	H267	0.378000	0.755800	0.889800
H2681	H268	0.250400	0.580600	0.949100
H2691	H269	0.213500	0.601800	0.067300
H2701	H270	0.245800	0.602100	0.126500
H2711	H271	0.120500	0.407400	0.128400
H2721	H272	0.098600	0.407400	0.071500
H2731	H273	0.711000	0.774400	0.929400
H2741	H274	0.807500	0.873000	0.905100
H2751	H275	0.770800	0.781800	0.811700
H2761	H276	0.680900	0.677400	0.839200
H2771	H277	0.570000	0.597000	0.986200
H2781	H278	0.538100	0.605900	0.163600
H2791	H279	0.539700	0.600100	0.103600
Ag2861	Ag286	0.299400	0.034100	0.756600
S2871	S287	0.140200	0.180200	0.725300
F2881	F288	0.295800	0.263500	0.740400
F2891	F289	0.204500	0.299100	0.706600
F2901	F290	0.137800	0.291100	0.760400
O2911	O291	0.183400	0.140500	0.758400
O2921	O292	0.196600	0.161700	0.694600
O2931	O293	0.019800	0.178500	0.718900
N2941	N294	0.246200	0.938300	0.784900
N2951	N295	0.829500	0.487900	0.203800
N2961	N296	0.435900	0.096200	0.783800
N2971	N297	0.107400	0.068100	0.825100
C2981	C298	0.189400	0.275000	0.732600
C2991	C299	0.892500	0.564400	0.944000
C3001	C300	0.898200	0.572500	0.909100
C3011	C301	0.954200	0.628300	0.890200
C3021	C302	0.000200	0.678700	0.874000
C3031	C303	0.054100	0.732700	0.857700
C3041	C304	0.085800	0.793500	0.873900
C3051	C305	0.134400	0.849100	0.853900
C3061	C306	0.142000	0.839300	0.820000
C3071	C307	0.198100	0.895700	0.803200
C3081	C308	0.110200	0.780800	0.805300
C3091	C309	0.064700	0.727800	0.824800
C3101	C310	0.843600	0.521200	0.887500
C3111	C311	0.783900	0.461100	0.902400
C3121	C312	0.729500	0.410900	0.882300
C3131	C313	0.682000	0.367300	0.866400
C3141	C314	0.632900	0.307600	0.849600
C3151	C315	0.619000	0.320400	0.814000
C3161	C316	0.566600	0.261500	0.793400
C3171	C317	0.535100	0.197200	0.814300
C3181	C318	0.473500	0.139200	0.795800
C3191	C319	0.550300	0.194300	0.850100
C3201	C320	0.604400	0.248400	0.866500
C3211	C321	0.785600	0.457100	0.938400
C3221	C322	0.841700	0.510000	0.960000
C3231	C323	0.836000	0.504900	0.994900
C3241	C324	0.832300	0.499500	0.025800
C3251	C325	0.828200	0.496400	0.063900
C3261	C326	0.799300	0.438700	0.080100
C3271	C327	0.787200	0.436300	0.115600
C3281	C328	0.826800	0.494200	0.134500
C3291	C329	0.825500	0.490700	0.175700
C3301	C330	0.861100	0.552300	0.116100
C3311	C331	0.869300	0.554200	0.082700
C3321	C332	0.460400	0.445000	0.936500
C3331	C333	0.412300	0.385600	0.918900
C3341	C334	0.372600	0.335300	0.903700
C3351	C335	0.314000	0.282300	0.888100
C3361	C336	0.276500	0.225400	0.905700
C3371	C337	0.218700	0.164000	0.891600
C3381	C338	0.206800	0.166800	0.855700
C3391	C339	0.150200	0.113400	0.835800
C3401	C340	0.240200	0.220100	0.835500
C3411	C341	0.296900	0.284100	0.852200
C3421	C342	0.458100	0.441900	0.974500
C3431	C343	0.476000	0.434600	0.150900
C3441	C344	0.477000	0.440500	0.115800
H3531	H353	0.925900	0.598900	0.957700
H3541	H354	0.075900	0.798600	0.897500
H3551	H355	0.159500	0.890300	0.864200
H3561	H356	0.118400	0.775200	0.781600
H3571	H357	0.040700	0.687000	0.813800
H3581	H358	0.846400	0.526300	0.863600
H3591	H359	0.640900	0.362500	0.803800
H3601	H360	0.554500	0.264400	0.769700
H3611	H361	0.523800	0.156000	0.862500
H3621	H362	0.622000	0.244200	0.889800
H3631	H363	0.749600	0.419400	0.949100
H3641	H364	0.786500	0.398200	0.067300
H3651	H365	0.754200	0.397900	0.126500
H3661	H366	0.879500	0.592600	0.128400
H3671	H367	0.901400	0.592600	0.071500
H3681	H368	0.289000	0.225600	0.929400
H3691	H369	0.192500	0.127000	0.905100
H3701	H370	0.229200	0.218200	0.811700
H3711	H371	0.319100	0.322600	0.839200
H3721	H372	0.430000	0.403000	0.986200
H3731	H373	0.461900	0.394100	0.163600
H3741	H374	0.460300	0.399900	0.103600
Ag3811	Ag381	0.500000	0.500000	0.290000
Ag3841	Ag384	0.000000	0.000000	0.790000
N3871	N387	0.000000	0.000000	0.733300
C3881	C388	0.000000	0.000000	0.419300
C3891	C389	0.000000	0.000000	0.491900
C3901	C390	0.000000	0.000000	0.529800
C3911	C391	0.000000	0.000000	0.596100
C3921	C392	0.000000	0.000000	0.560700
C3931	C393	0.000000	0.000000	0.664100
C3941	C394	0.000000	0.000000	0.699400
H3951	H395	0.000000	0.000000	0.395300
N3961	N396	0.500000	0.500000	0.233300
C3971	C397	0.500000	0.500000	0.919300
C3981	C398	0.500000	0.500000	0.991900
C3991	C399	0.500000	0.500000	0.029800
C4001	C400	0.500000	0.500000	0.096100
C4011	C401	0.500000	0.500000	0.060700
C4021	C402	0.500000	0.500000	0.164100
C4031	C403	0.500000	0.500000	0.199400
H4041	H404	0.500000	0.500000	0.895300
