data_ZACCUB_clean_PM
_symmetry_space_group_name_H-M	'P1'
_cell_length_a	9.574000
_cell_length_b	14.000000
_cell_length_c	17.435000
_cell_angle_alpha	90.000000
_cell_angle_beta	90.000000
_cell_angle_gamma	90.000000
_symmetry_Int_Tables_number 1

loop_
_symmetry_equiv_pos_as_xyz
'x,y,z'

loop_
_atom_site_label
_atom_site_type_symbol
_atom_site_fract_x
_atom_site_fract_y
_atom_site_fract_z
Ga11	Ga1	0.224630	0.293950	0.698460
Ga21	Ga2	0.451180	0.501750	0.456240
Ga31	Ga3	0.245540	0.207190	0.471850
Ga41	Ga4	0.461070	0.511500	0.927100
P11	P1	0.254700	0.349390	0.874050
P21	P2	0.221900	0.420180	0.551070
P31	P3	0.483200	0.212870	0.619630
P41	P4	0.763400	0.522880	0.511330
P51	P5	0.002200	0.181910	0.609850
O11	O1	0.190300	0.339000	0.794200
O21	O2	0.401200	0.246300	0.692700
O31	O3	0.089600	0.204000	0.683000
O41	O4	0.196100	0.397000	0.635900
O51	O5	0.367000	0.467300	0.546600
O61	O6	0.137400	0.387300	0.926000
O71	O7	0.618400	0.553000	0.483000
O81	O8	0.933700	0.081900	0.624300
O91	O9	0.208900	0.338500	0.497600
O101	O10	0.602900	0.282500	0.609400
O111	O11	0.386000	0.202700	0.552700
O121	O12	0.769000	0.429700	0.554100
O131	O13	0.892500	0.259400	0.602100
O141	O14	0.095000	0.165500	0.541000
O151	O15	0.374900	0.421000	0.867900
O161	O16	0.111300	0.493100	0.524400
O171	O17	0.541100	0.112200	0.638800
O181	O18	0.857000	0.524500	0.439900
O191	O19	0.307800	0.256400	0.904800
O201	O20	0.812100	0.599700	0.568500
Ga51	Ga5	0.275370	0.706050	0.198460
Ga61	Ga6	0.048820	0.498250	0.956240
Ga71	Ga7	0.254460	0.792810	0.971850
Ga81	Ga8	0.038930	0.488500	0.427100
P61	P6	0.245300	0.650610	0.374050
P71	P7	0.278100	0.579820	0.051070
P81	P8	0.016800	0.787130	0.119630
P91	P9	0.736600	0.477120	0.011330
P101	P10	0.497800	0.818090	0.109850
O211	O21	0.309700	0.661000	0.294200
O221	O22	0.098800	0.753700	0.192700
O231	O23	0.410400	0.796000	0.183000
O241	O24	0.303900	0.603000	0.135900
O251	O25	0.133000	0.532700	0.046600
O261	O26	0.362600	0.612700	0.426000
O271	O27	0.881600	0.447000	0.983000
O281	O28	0.566300	0.918100	0.124300
O291	O29	0.291100	0.661500	0.997600
O301	O30	0.897100	0.717500	0.109400
O311	O31	0.114000	0.797300	0.052700
O321	O32	0.731000	0.570300	0.054100
O331	O33	0.607500	0.740600	0.102100
O341	O34	0.405000	0.834500	0.041000
O351	O35	0.125100	0.579000	0.367900
O361	O36	0.388700	0.506900	0.024400
O371	O37	0.958900	0.887800	0.138800
O381	O38	0.643000	0.475500	0.939900
O391	O39	0.192200	0.743600	0.404800
O401	O40	0.687900	0.400300	0.068500
Ga91	Ga9	0.775370	0.793950	0.801540
Ga101	Ga10	0.548820	0.001750	0.043760
Ga111	Ga11	0.754460	0.707190	0.028150
Ga121	Ga12	0.538930	0.011500	0.572900
P111	P11	0.745300	0.849390	0.625950
P121	P12	0.778100	0.920180	0.948930
P131	P13	0.516800	0.712870	0.880370
P141	P14	0.236600	0.022880	0.988670
P151	P15	0.997800	0.681910	0.890150
O411	O41	0.809700	0.839000	0.705800
O421	O42	0.598800	0.746300	0.807300
O431	O43	0.910400	0.704000	0.817000
O441	O44	0.803900	0.897000	0.864100
O451	O45	0.633000	0.967300	0.953400
O461	O46	0.862600	0.887300	0.574000
O471	O47	0.381600	0.053000	0.017000
O481	O48	0.066300	0.581900	0.875700
O491	O49	0.791100	0.838500	0.002400
O501	O50	0.397100	0.782500	0.890600
O511	O51	0.614000	0.702700	0.947300
O521	O52	0.231000	0.929700	0.945900
O531	O53	0.107500	0.759400	0.897900
O541	O54	0.905000	0.665500	0.959000
O551	O55	0.625100	0.921000	0.632100
O561	O56	0.888700	0.993100	0.975600
O571	O57	0.458900	0.612200	0.861200
O581	O58	0.143000	0.024500	0.060100
O591	O59	0.692200	0.756400	0.595200
O601	O60	0.187900	0.099700	0.931500
Ga131	Ga13	0.724630	0.206050	0.301540
Ga141	Ga14	0.951180	0.998250	0.543760
Ga151	Ga15	0.745540	0.292810	0.528150
Ga161	Ga16	0.961070	0.988500	0.072900
P161	P16	0.754700	0.150610	0.125950
P171	P17	0.721900	0.079820	0.448930
P181	P18	0.983200	0.287130	0.380370
P191	P19	0.263400	0.977120	0.488670
P201	P20	0.502200	0.318090	0.390150
O611	O61	0.690300	0.161000	0.205800
O621	O62	0.901200	0.253700	0.307300
O631	O63	0.589600	0.296000	0.317000
O641	O64	0.696100	0.103000	0.364100
O651	O65	0.867000	0.032700	0.453400
O661	O66	0.637400	0.112700	0.074000
O671	O67	0.118400	0.947000	0.517000
O681	O68	0.433700	0.418100	0.375700
O691	O69	0.708900	0.161500	0.502400
O701	O70	0.102900	0.217500	0.390600
O711	O71	0.886000	0.297300	0.447300
O721	O72	0.269000	0.070300	0.445900
O731	O73	0.392500	0.240600	0.397900
O741	O74	0.595000	0.334500	0.459000
O751	O75	0.874900	0.079000	0.132100
O761	O76	0.611300	0.006900	0.475600
O771	O77	0.041100	0.387800	0.361200
O781	O78	0.357000	0.975500	0.560100
O791	O79	0.807800	0.243600	0.095200
O801	O80	0.312100	0.900300	0.431500
