data_ZACHIX_clean_PM
_symmetry_space_group_name_H-M	'P1'
_cell_length_a	26.232000
_cell_length_b	26.232000
_cell_length_c	26.232000
_cell_angle_alpha	90.000000
_cell_angle_beta	90.000000
_cell_angle_gamma	90.000000
_symmetry_Int_Tables_number 1

loop_
_symmetry_equiv_pos_as_xyz
'x,y,z'

loop_
_atom_site_label
_atom_site_type_symbol
_atom_site_fract_x
_atom_site_fract_y
_atom_site_fract_z
O11	O1	0.947600	0.183000	0.256800
O21	O2	0.947600	0.683000	0.756800
O31	O3	0.447600	0.183000	0.756800
O41	O4	0.447600	0.683000	0.256800
O51	O5	0.052400	0.817000	0.256800
O61	O6	0.052400	0.317000	0.756800
O71	O7	0.552400	0.817000	0.756800
O81	O8	0.552400	0.317000	0.256800
O91	O9	0.052400	0.183000	0.743200
O101	O10	0.052400	0.683000	0.243200
O111	O11	0.552400	0.183000	0.243200
O121	O12	0.552400	0.683000	0.743200
O131	O13	0.947600	0.817000	0.743200
O141	O14	0.947600	0.317000	0.243200
O151	O15	0.447600	0.817000	0.243200
O161	O16	0.447600	0.317000	0.743200
O171	O17	0.256800	0.947600	0.183000
O181	O18	0.256800	0.447600	0.683000
O191	O19	0.756800	0.947600	0.683000
O201	O20	0.756800	0.447600	0.183000
O211	O21	0.256800	0.052400	0.817000
O221	O22	0.256800	0.552400	0.317000
O231	O23	0.756800	0.052400	0.317000
O241	O24	0.756800	0.552400	0.817000
O251	O25	0.743200	0.052400	0.183000
O261	O26	0.743200	0.552400	0.683000
O271	O27	0.243200	0.052400	0.683000
O281	O28	0.243200	0.552400	0.183000
O291	O29	0.743200	0.947600	0.817000
O301	O30	0.743200	0.447600	0.317000
O311	O31	0.243200	0.947600	0.317000
O321	O32	0.243200	0.447600	0.817000
O331	O33	0.183000	0.256800	0.947600
O341	O34	0.183000	0.756800	0.447600
O351	O35	0.683000	0.256800	0.447600
O361	O36	0.683000	0.756800	0.947600
O371	O37	0.817000	0.256800	0.052400
O381	O38	0.817000	0.756800	0.552400
O391	O39	0.317000	0.256800	0.552400
O401	O40	0.317000	0.756800	0.052400
O411	O41	0.183000	0.743200	0.052400
O421	O42	0.183000	0.243200	0.552400
O431	O43	0.683000	0.743200	0.552400
O441	O44	0.683000	0.243200	0.052400
O451	O45	0.817000	0.743200	0.947600
O461	O46	0.817000	0.243200	0.447600
O471	O47	0.317000	0.743200	0.447600
O481	O48	0.317000	0.243200	0.947600
O491	O49	0.183000	0.947600	0.743200
O501	O50	0.183000	0.447600	0.243200
O511	O51	0.683000	0.947600	0.243200
O521	O52	0.683000	0.447600	0.743200
O531	O53	0.817000	0.052400	0.743200
O541	O54	0.817000	0.552400	0.243200
O551	O55	0.317000	0.052400	0.243200
O561	O56	0.317000	0.552400	0.743200
O571	O57	0.183000	0.052400	0.256800
O581	O58	0.183000	0.552400	0.756800
O591	O59	0.683000	0.052400	0.756800
O601	O60	0.683000	0.552400	0.256800
O611	O61	0.817000	0.947600	0.256800
O621	O62	0.817000	0.447600	0.756800
O631	O63	0.317000	0.947600	0.756800
O641	O64	0.317000	0.447600	0.256800
O651	O65	0.947600	0.256800	0.817000
O661	O66	0.947600	0.756800	0.317000
O671	O67	0.447600	0.256800	0.317000
O681	O68	0.447600	0.756800	0.817000
O691	O69	0.052400	0.256800	0.183000
O701	O70	0.052400	0.756800	0.683000
O711	O71	0.552400	0.256800	0.683000
O721	O72	0.552400	0.756800	0.183000
O731	O73	0.052400	0.743200	0.817000
O741	O74	0.052400	0.243200	0.317000
O751	O75	0.552400	0.743200	0.317000
O761	O76	0.552400	0.243200	0.817000
O771	O77	0.947600	0.743200	0.183000
O781	O78	0.947600	0.243200	0.683000
O791	O79	0.447600	0.743200	0.683000
O801	O80	0.447600	0.243200	0.183000
O811	O81	0.256800	0.183000	0.052400
O821	O82	0.256800	0.683000	0.552400
O831	O83	0.756800	0.183000	0.552400
O841	O84	0.756800	0.683000	0.052400
O851	O85	0.256800	0.817000	0.947600
O861	O86	0.256800	0.317000	0.447600
O871	O87	0.756800	0.817000	0.447600
O881	O88	0.756800	0.317000	0.947600
O891	O89	0.743200	0.183000	0.947600
O901	O90	0.743200	0.683000	0.447600
O911	O91	0.243200	0.183000	0.447600
O921	O92	0.243200	0.683000	0.947600
O931	O93	0.743200	0.817000	0.052400
O941	O94	0.743200	0.317000	0.552400
O951	O95	0.243200	0.817000	0.552400
O961	O96	0.243200	0.317000	0.052400
O971	O97	0.052400	0.817000	0.743200
O981	O98	0.052400	0.317000	0.243200
O991	O99	0.552400	0.817000	0.243200
O1001	O100	0.552400	0.317000	0.743200
O1011	O101	0.947600	0.183000	0.743200
O1021	O102	0.947600	0.683000	0.243200
O1031	O103	0.447600	0.183000	0.243200
O1041	O104	0.447600	0.683000	0.743200
O1051	O105	0.947600	0.817000	0.256800
O1061	O106	0.947600	0.317000	0.756800
O1071	O107	0.447600	0.817000	0.756800
O1081	O108	0.447600	0.317000	0.256800
O1091	O109	0.052400	0.183000	0.256800
O1101	O110	0.052400	0.683000	0.756800
O1111	O111	0.552400	0.183000	0.756800
O1121	O112	0.552400	0.683000	0.256800
O1131	O113	0.743200	0.052400	0.817000
O1141	O114	0.743200	0.552400	0.317000
O1151	O115	0.243200	0.052400	0.317000
O1161	O116	0.243200	0.552400	0.817000
O1171	O117	0.743200	0.947600	0.183000
O1181	O118	0.743200	0.447600	0.683000
O1191	O119	0.243200	0.947600	0.683000
O1201	O120	0.243200	0.447600	0.183000
O1211	O121	0.256800	0.947600	0.817000
O1221	O122	0.256800	0.447600	0.317000
O1231	O123	0.756800	0.947600	0.317000
O1241	O124	0.756800	0.447600	0.817000
O1251	O125	0.256800	0.052400	0.183000
O1261	O126	0.256800	0.552400	0.683000
O1271	O127	0.756800	0.052400	0.683000
O1281	O128	0.756800	0.552400	0.183000
O1291	O129	0.817000	0.743200	0.052400
O1301	O130	0.817000	0.243200	0.552400
O1311	O131	0.317000	0.743200	0.552400
O1321	O132	0.317000	0.243200	0.052400
O1331	O133	0.183000	0.743200	0.947600
O1341	O134	0.183000	0.243200	0.447600
O1351	O135	0.683000	0.743200	0.447600
O1361	O136	0.683000	0.243200	0.947600
O1371	O137	0.817000	0.256800	0.947600
O1381	O138	0.817000	0.756800	0.447600
O1391	O139	0.317000	0.256800	0.447600
O1401	O140	0.317000	0.756800	0.947600
O1411	O141	0.183000	0.256800	0.052400
O1421	O142	0.183000	0.756800	0.552400
O1431	O143	0.683000	0.256800	0.552400
O1441	O144	0.683000	0.756800	0.052400
O1451	O145	0.817000	0.052400	0.256800
O1461	O146	0.817000	0.552400	0.756800
O1471	O147	0.317000	0.052400	0.756800
O1481	O148	0.317000	0.552400	0.256800
O1491	O149	0.183000	0.947600	0.256800
O1501	O150	0.183000	0.447600	0.756800
O1511	O151	0.683000	0.947600	0.756800
O1521	O152	0.683000	0.447600	0.256800
O1531	O153	0.817000	0.947600	0.743200
O1541	O154	0.817000	0.447600	0.243200
O1551	O155	0.317000	0.947600	0.243200
O1561	O156	0.317000	0.447600	0.743200
O1571	O157	0.183000	0.052400	0.743200
O1581	O158	0.183000	0.552400	0.243200
O1591	O159	0.683000	0.052400	0.243200
O1601	O160	0.683000	0.552400	0.743200
O1611	O161	0.052400	0.743200	0.183000
O1621	O162	0.052400	0.243200	0.683000
O1631	O163	0.552400	0.743200	0.683000
O1641	O164	0.552400	0.243200	0.183000
O1651	O165	0.947600	0.743200	0.817000
O1661	O166	0.947600	0.243200	0.317000
O1671	O167	0.447600	0.743200	0.317000
O1681	O168	0.447600	0.243200	0.817000
O1691	O169	0.947600	0.256800	0.183000
O1701	O170	0.947600	0.756800	0.683000
O1711	O171	0.447600	0.256800	0.683000
O1721	O172	0.447600	0.756800	0.183000
O1731	O173	0.052400	0.256800	0.817000
O1741	O174	0.052400	0.756800	0.317000
O1751	O175	0.552400	0.256800	0.317000
O1761	O176	0.552400	0.756800	0.817000
O1771	O177	0.743200	0.817000	0.947600
O1781	O178	0.743200	0.317000	0.447600
O1791	O179	0.243200	0.817000	0.447600
O1801	O180	0.243200	0.317000	0.947600
O1811	O181	0.743200	0.183000	0.052400
O1821	O182	0.743200	0.683000	0.552400
O1831	O183	0.243200	0.183000	0.552400
O1841	O184	0.243200	0.683000	0.052400
O1851	O185	0.256800	0.817000	0.052400
O1861	O186	0.256800	0.317000	0.552400
O1871	O187	0.756800	0.817000	0.552400
O1881	O188	0.756800	0.317000	0.052400
O1891	O189	0.256800	0.183000	0.947600
O1901	O190	0.256800	0.683000	0.447600
O1911	O191	0.756800	0.183000	0.447600
O1921	O192	0.756800	0.683000	0.947600
Cu11	Cu1	0.000000	0.214880	0.214880
Cu21	Cu2	0.000000	0.714880	0.714880
Cu31	Cu3	0.500000	0.214880	0.714880
Cu41	Cu4	0.500000	0.714880	0.214880
Cu51	Cu5	0.000000	0.785120	0.214880
Cu61	Cu6	0.000000	0.285120	0.714880
Cu71	Cu7	0.500000	0.785120	0.714880
Cu81	Cu8	0.500000	0.285120	0.214880
Cu91	Cu9	0.000000	0.214880	0.785120
Cu101	Cu10	0.000000	0.714880	0.285120
Cu111	Cu11	0.500000	0.214880	0.285120
Cu121	Cu12	0.500000	0.714880	0.785120
Cu131	Cu13	0.000000	0.785120	0.785120
Cu141	Cu14	0.000000	0.285120	0.285120
Cu151	Cu15	0.500000	0.785120	0.285120
Cu161	Cu16	0.500000	0.285120	0.785120
Cu171	Cu17	0.214880	0.000000	0.214880
Cu181	Cu18	0.214880	0.500000	0.714880
Cu191	Cu19	0.714880	0.000000	0.714880
Cu201	Cu20	0.714880	0.500000	0.214880
Cu211	Cu21	0.214880	0.000000	0.785120
Cu221	Cu22	0.214880	0.500000	0.285120
Cu231	Cu23	0.714880	0.000000	0.285120
Cu241	Cu24	0.714880	0.500000	0.785120
Cu251	Cu25	0.785120	0.000000	0.214880
Cu261	Cu26	0.785120	0.500000	0.714880
Cu271	Cu27	0.285120	0.000000	0.714880
Cu281	Cu28	0.285120	0.500000	0.214880
Cu291	Cu29	0.785120	0.000000	0.785120
Cu301	Cu30	0.785120	0.500000	0.285120
Cu311	Cu31	0.285120	0.000000	0.285120
Cu321	Cu32	0.285120	0.500000	0.785120
Cu331	Cu33	0.214880	0.214880	0.000000
Cu341	Cu34	0.214880	0.714880	0.500000
Cu351	Cu35	0.714880	0.214880	0.500000
Cu361	Cu36	0.714880	0.714880	0.000000
Cu371	Cu37	0.785120	0.214880	0.000000
Cu381	Cu38	0.785120	0.714880	0.500000
Cu391	Cu39	0.285120	0.214880	0.500000
Cu401	Cu40	0.285120	0.714880	0.000000
Cu411	Cu41	0.214880	0.785120	0.000000
Cu421	Cu42	0.214880	0.285120	0.500000
Cu431	Cu43	0.714880	0.785120	0.500000
Cu441	Cu44	0.714880	0.285120	0.000000
Cu451	Cu45	0.785120	0.785120	0.000000
Cu461	Cu46	0.785120	0.285120	0.500000
Cu471	Cu47	0.285120	0.785120	0.500000
Cu481	Cu48	0.285120	0.285120	0.000000
C11	C1	0.867000	0.199200	0.367000
H11	H1	0.880900	0.228600	0.380900
C21	C2	0.867000	0.699200	0.867000
H21	H2	0.880900	0.728600	0.880900
C31	C3	0.367000	0.699200	0.367000
H31	H3	0.380900	0.728600	0.380900
C41	C4	0.133000	0.800800	0.367000
H41	H4	0.119100	0.771400	0.380900
C51	C5	0.133000	0.300800	0.867000
H51	H5	0.119100	0.271400	0.880900
C61	C6	0.133000	0.199200	0.633000
H61	H6	0.119100	0.228600	0.619100
C71	C7	0.133000	0.699200	0.133000
H71	H7	0.119100	0.728600	0.119100
C81	C8	0.867000	0.800800	0.633000
H81	H8	0.880900	0.771400	0.619100
C91	C9	0.867000	0.300800	0.133000
H91	H9	0.880900	0.271400	0.119100
C101	C10	0.367000	0.800800	0.133000
H101	H10	0.380900	0.771400	0.119100
C111	C11	0.367000	0.867000	0.199200
H111	H11	0.380900	0.880900	0.228600
C121	C12	0.367000	0.367000	0.699200
H121	H12	0.380900	0.380900	0.728600
C131	C13	0.367000	0.133000	0.800800
H131	H13	0.380900	0.119100	0.771400
C141	C14	0.367000	0.633000	0.300800
H141	H14	0.380900	0.619100	0.271400
C151	C15	0.633000	0.133000	0.199200
H151	H15	0.619100	0.119100	0.228600
C161	C16	0.633000	0.633000	0.699200
H161	H16	0.619100	0.619100	0.728600
C171	C17	0.133000	0.133000	0.699200
H171	H17	0.119100	0.119100	0.728600
C181	C18	0.633000	0.867000	0.800800
H181	H18	0.619100	0.880900	0.771400
C191	C19	0.633000	0.367000	0.300800
H191	H19	0.619100	0.380900	0.271400
C201	C20	0.133000	0.367000	0.800800
H201	H20	0.119100	0.380900	0.771400
C211	C21	0.199200	0.367000	0.867000
H211	H21	0.228600	0.380900	0.880900
C221	C22	0.699200	0.367000	0.367000
H221	H22	0.728600	0.380900	0.380900
C231	C23	0.800800	0.367000	0.133000
H231	H23	0.771400	0.380900	0.119100
C241	C24	0.300800	0.367000	0.633000
H241	H24	0.271400	0.380900	0.619100
C251	C25	0.199200	0.633000	0.133000
H251	H25	0.228600	0.619100	0.119100
C261	C26	0.699200	0.633000	0.633000
H261	H26	0.728600	0.619100	0.619100
C271	C27	0.699200	0.133000	0.133000
H271	H27	0.728600	0.119100	0.119100
C281	C28	0.800800	0.633000	0.867000
H281	H28	0.771400	0.619100	0.880900
C291	C29	0.800800	0.133000	0.367000
H291	H29	0.771400	0.119100	0.380900
C301	C30	0.300800	0.633000	0.367000
H301	H30	0.271400	0.619100	0.380900
C311	C31	0.199200	0.867000	0.633000
H311	H31	0.228600	0.880900	0.619100
C321	C32	0.199200	0.367000	0.133000
H321	H32	0.228600	0.380900	0.119100
C331	C33	0.699200	0.867000	0.133000
H331	H33	0.728600	0.880900	0.119100
C341	C34	0.800800	0.133000	0.633000
H341	H34	0.771400	0.119100	0.619100
C351	C35	0.300800	0.133000	0.133000
H351	H35	0.271400	0.119100	0.119100
C361	C36	0.199200	0.133000	0.367000
H361	H36	0.228600	0.119100	0.380900
C371	C37	0.699200	0.133000	0.867000
H371	H37	0.728600	0.119100	0.880900
C381	C38	0.800800	0.867000	0.367000
H381	H38	0.771400	0.880900	0.380900
C391	C39	0.300800	0.867000	0.867000
H391	H39	0.271400	0.880900	0.880900
C401	C40	0.300800	0.367000	0.367000
H401	H40	0.271400	0.380900	0.380900
C411	C41	0.867000	0.367000	0.800800
H411	H41	0.880900	0.380900	0.771400
C421	C42	0.867000	0.867000	0.300800
H421	H42	0.880900	0.880900	0.271400
C431	C43	0.367000	0.367000	0.300800
H431	H43	0.380900	0.380900	0.271400
C441	C44	0.133000	0.367000	0.199200
H441	H44	0.119100	0.380900	0.228600
C451	C45	0.133000	0.867000	0.699200
H451	H45	0.119100	0.880900	0.728600
C461	C46	0.133000	0.633000	0.800800
H461	H46	0.119100	0.619100	0.771400
C471	C47	0.133000	0.133000	0.300800
H471	H47	0.119100	0.119100	0.271400
C481	C48	0.867000	0.633000	0.199200
H481	H48	0.880900	0.619100	0.228600
C491	C49	0.867000	0.133000	0.699200
H491	H49	0.880900	0.119100	0.728600
C501	C50	0.367000	0.133000	0.199200
H501	H50	0.380900	0.119100	0.228600
C511	C51	0.367000	0.199200	0.133000
H511	H51	0.380900	0.228600	0.119100
C521	C52	0.367000	0.699200	0.633000
H521	H52	0.380900	0.728600	0.619100
C531	C53	0.367000	0.800800	0.867000
H531	H53	0.380900	0.771400	0.880900
C541	C54	0.367000	0.300800	0.367000
H541	H54	0.380900	0.271400	0.380900
C551	C55	0.633000	0.199200	0.867000
H551	H55	0.619100	0.228600	0.880900
C561	C56	0.633000	0.699200	0.367000
H561	H56	0.619100	0.728600	0.380900
C571	C57	0.133000	0.199200	0.367000
H571	H57	0.119100	0.228600	0.380900
C581	C58	0.633000	0.800800	0.133000
H581	H58	0.619100	0.771400	0.119100
C591	C59	0.633000	0.300800	0.633000
H591	H59	0.619100	0.271400	0.619100
C601	C60	0.133000	0.300800	0.133000
H601	H60	0.119100	0.271400	0.119100
C611	C61	0.133000	0.800800	0.633000
H611	H61	0.119100	0.771400	0.619100
C621	C62	0.867000	0.199200	0.633000
H621	H62	0.880900	0.228600	0.619100
C631	C63	0.867000	0.699200	0.133000
H631	H63	0.880900	0.728600	0.119100
C641	C64	0.867000	0.800800	0.367000
H641	H64	0.880900	0.771400	0.380900
C651	C65	0.867000	0.300800	0.867000
H651	H65	0.880900	0.271400	0.880900
C661	C66	0.133000	0.699200	0.867000
H661	H66	0.119100	0.728600	0.880900
C671	C67	0.633000	0.133000	0.800800
H671	H67	0.619100	0.119100	0.771400
C681	C68	0.633000	0.633000	0.300800
H681	H68	0.619100	0.619100	0.271400
C691	C69	0.633000	0.867000	0.199200
H691	H69	0.619100	0.880900	0.228600
C701	C70	0.633000	0.367000	0.699200
H701	H70	0.619100	0.380900	0.728600
C711	C71	0.367000	0.867000	0.800800
H711	H71	0.380900	0.880900	0.771400
C721	C72	0.367000	0.633000	0.699200
H721	H72	0.380900	0.619100	0.728600
C731	C73	0.800800	0.633000	0.133000
H731	H73	0.771400	0.619100	0.119100
C741	C74	0.300800	0.633000	0.633000
H741	H74	0.271400	0.619100	0.619100
C751	C75	0.199200	0.633000	0.867000
H751	H75	0.228600	0.619100	0.880900
C761	C76	0.699200	0.633000	0.367000
H761	H76	0.728600	0.619100	0.380900
C771	C77	0.800800	0.367000	0.867000
H771	H77	0.771400	0.380900	0.880900
C781	C78	0.699200	0.367000	0.633000
H781	H78	0.728600	0.380900	0.619100
C791	C79	0.300800	0.133000	0.867000
H791	H79	0.271400	0.119100	0.880900
C801	C80	0.199200	0.867000	0.367000
H801	H80	0.228600	0.880900	0.380900
C811	C81	0.699200	0.867000	0.867000
H811	H81	0.728600	0.880900	0.880900
C821	C82	0.800800	0.867000	0.633000
H821	H82	0.771400	0.880900	0.619100
C831	C83	0.300800	0.867000	0.133000
H831	H83	0.271400	0.880900	0.119100
C841	C84	0.199200	0.133000	0.633000
H841	H84	0.228600	0.119100	0.619100
C851	C85	0.133000	0.633000	0.199200
H851	H85	0.119100	0.619100	0.228600
C861	C86	0.867000	0.633000	0.800800
H861	H86	0.880900	0.619100	0.771400
C871	C87	0.867000	0.133000	0.300800
H871	H87	0.880900	0.119100	0.271400
C881	C88	0.867000	0.367000	0.199200
H881	H88	0.880900	0.380900	0.228600
C891	C89	0.867000	0.867000	0.699200
H891	H89	0.880900	0.880900	0.728600
C901	C90	0.133000	0.867000	0.300800
H901	H90	0.119100	0.880900	0.271400
C911	C91	0.633000	0.800800	0.867000
H911	H91	0.619100	0.771400	0.880900
C921	C92	0.633000	0.300800	0.367000
H921	H92	0.619100	0.271400	0.380900
C931	C93	0.633000	0.199200	0.133000
H931	H93	0.619100	0.228600	0.119100
C941	C94	0.633000	0.699200	0.633000
H941	H94	0.619100	0.728600	0.619100
C951	C95	0.367000	0.300800	0.633000
H951	H95	0.380900	0.271400	0.619100
C961	C96	0.367000	0.199200	0.867000
H961	H96	0.380900	0.228600	0.880900
C971	C97	0.889100	0.176600	0.323400
C981	C98	0.932500	0.202400	0.297600
C991	C99	0.389100	0.176600	0.823400
C1001	C100	0.432500	0.202400	0.797600
C1011	C101	0.110900	0.823400	0.323400
C1021	C102	0.067500	0.797600	0.297600
C1031	C103	0.610900	0.823400	0.823400
C1041	C104	0.567500	0.797600	0.797600
C1051	C105	0.610900	0.323400	0.323400
C1061	C106	0.567500	0.297600	0.297600
C1071	C107	0.110900	0.176600	0.676600
C1081	C108	0.067500	0.202400	0.702400
C1091	C109	0.610900	0.176600	0.176600
C1101	C110	0.567500	0.202400	0.202400
C1111	C111	0.889100	0.823400	0.676600
C1121	C112	0.932500	0.797600	0.702400
C1131	C113	0.889100	0.323400	0.176600
C1141	C114	0.932500	0.297600	0.202400
C1151	C115	0.389100	0.823400	0.176600
C1161	C116	0.432500	0.797600	0.202400
C1171	C117	0.323400	0.889100	0.176600
C1181	C118	0.297600	0.932500	0.202400
C1191	C119	0.323400	0.389100	0.676600
C1201	C120	0.297600	0.432500	0.702400
C1211	C121	0.323400	0.110900	0.823400
C1221	C122	0.297600	0.067500	0.797600
C1231	C123	0.323400	0.610900	0.323400
C1241	C124	0.297600	0.567500	0.297600
C1251	C125	0.676600	0.110900	0.176600
C1261	C126	0.702400	0.067500	0.202400
C1271	C127	0.676600	0.610900	0.676600
C1281	C128	0.702400	0.567500	0.702400
C1291	C129	0.176600	0.610900	0.176600
C1301	C130	0.202400	0.567500	0.202400
C1311	C131	0.676600	0.889100	0.823400
C1321	C132	0.702400	0.932500	0.797600
C1331	C133	0.676600	0.389100	0.323400
C1341	C134	0.702400	0.432500	0.297600
C1351	C135	0.176600	0.889100	0.323400
C1361	C136	0.202400	0.932500	0.297600
C1371	C137	0.176600	0.323400	0.889100
C1381	C138	0.202400	0.297600	0.932500
C1391	C139	0.176600	0.823400	0.389100
C1401	C140	0.202400	0.797600	0.432500
C1411	C141	0.823400	0.323400	0.110900
C1421	C142	0.797600	0.297600	0.067500
C1431	C143	0.823400	0.823400	0.610900
C1441	C144	0.797600	0.797600	0.567500
C1451	C145	0.323400	0.323400	0.610900
C1461	C146	0.297600	0.297600	0.567500
C1471	C147	0.176600	0.676600	0.110900
C1481	C148	0.202400	0.702400	0.067500
C1491	C149	0.176600	0.176600	0.610900
C1501	C150	0.202400	0.202400	0.567500
C1511	C151	0.823400	0.676600	0.889100
C1521	C152	0.797600	0.702400	0.932500
C1531	C153	0.823400	0.176600	0.389100
C1541	C154	0.797600	0.202400	0.432500
C1551	C155	0.323400	0.176600	0.889100
C1561	C156	0.297600	0.202400	0.932500
C1571	C157	0.176600	0.889100	0.676600
C1581	C158	0.202400	0.932500	0.702400
C1591	C159	0.176600	0.389100	0.176600
C1601	C160	0.202400	0.432500	0.202400
C1611	C161	0.823400	0.110900	0.676600
C1621	C162	0.797600	0.067500	0.702400
C1631	C163	0.823400	0.610900	0.176600
C1641	C164	0.797600	0.567500	0.202400
C1651	C165	0.323400	0.110900	0.176600
C1661	C166	0.297600	0.067500	0.202400
C1671	C167	0.176600	0.110900	0.323400
C1681	C168	0.202400	0.067500	0.297600
C1691	C169	0.176600	0.610900	0.823400
C1701	C170	0.202400	0.567500	0.797600
C1711	C171	0.823400	0.889100	0.323400
C1721	C172	0.797600	0.932500	0.297600
C1731	C173	0.823400	0.389100	0.823400
C1741	C174	0.797600	0.432500	0.797600
C1751	C175	0.323400	0.389100	0.323400
C1761	C176	0.297600	0.432500	0.297600
C1771	C177	0.889100	0.323400	0.823400
C1781	C178	0.932500	0.297600	0.797600
C1791	C179	0.389100	0.323400	0.323400
C1801	C180	0.432500	0.297600	0.297600
C1811	C181	0.110900	0.323400	0.176600
C1821	C182	0.067500	0.297600	0.202400
C1831	C183	0.610900	0.323400	0.676600
C1841	C184	0.567500	0.297600	0.702400
C1851	C185	0.110900	0.676600	0.823400
C1861	C186	0.067500	0.702400	0.797600
C1871	C187	0.110900	0.176600	0.323400
C1881	C188	0.067500	0.202400	0.297600
C1891	C189	0.610900	0.676600	0.323400
C1901	C190	0.567500	0.702400	0.297600
C1911	C191	0.889100	0.676600	0.176600
C1921	C192	0.932500	0.702400	0.202400
C1931	C193	0.389100	0.676600	0.676600
C1941	C194	0.432500	0.702400	0.702400
C1951	C195	0.389100	0.176600	0.176600
C1961	C196	0.432500	0.202400	0.202400
C1971	C197	0.323400	0.176600	0.110900
C1981	C198	0.297600	0.202400	0.067500
C1991	C199	0.323400	0.676600	0.610900
C2001	C200	0.297600	0.702400	0.567500
C2011	C201	0.323400	0.823400	0.889100
C2021	C202	0.297600	0.797600	0.932500
C2031	C203	0.323400	0.323400	0.389100
C2041	C204	0.297600	0.297600	0.432500
C2051	C205	0.676600	0.176600	0.889100
C2061	C206	0.702400	0.202400	0.932500
C2071	C207	0.676600	0.676600	0.389100
C2081	C208	0.702400	0.702400	0.432500
C2091	C209	0.176600	0.176600	0.389100
C2101	C210	0.202400	0.202400	0.432500
C2111	C211	0.676600	0.823400	0.110900
C2121	C212	0.702400	0.797600	0.067500
C2131	C213	0.676600	0.323400	0.610900
C2141	C214	0.702400	0.297600	0.567500
C2151	C215	0.176600	0.323400	0.110900
C2161	C216	0.202400	0.297600	0.067500
C2171	C217	0.110900	0.823400	0.676600
C2181	C218	0.067500	0.797600	0.702400
C2191	C219	0.610900	0.823400	0.176600
C2201	C220	0.567500	0.797600	0.202400
C2211	C221	0.889100	0.176600	0.676600
C2221	C222	0.932500	0.202400	0.702400
C2231	C223	0.889100	0.823400	0.323400
C2241	C224	0.932500	0.797600	0.297600
C2251	C225	0.389100	0.823400	0.823400
C2261	C226	0.432500	0.797600	0.797600
C2271	C227	0.610900	0.176600	0.823400
C2281	C228	0.567500	0.202400	0.797600
C2291	C229	0.676600	0.110900	0.823400
C2301	C230	0.702400	0.067500	0.797600
C2311	C231	0.676600	0.610900	0.323400
C2321	C232	0.702400	0.567500	0.297600
C2331	C233	0.676600	0.889100	0.176600
C2341	C234	0.702400	0.932500	0.202400
C2351	C235	0.676600	0.389100	0.676600
C2361	C236	0.702400	0.432500	0.702400
C2371	C237	0.323400	0.889100	0.823400
C2381	C238	0.297600	0.932500	0.797600
C2391	C239	0.323400	0.610900	0.676600
C2401	C240	0.297600	0.567500	0.702400
C2411	C241	0.823400	0.676600	0.110900
C2421	C242	0.797600	0.702400	0.067500
C2431	C243	0.823400	0.176600	0.610900
C2441	C244	0.797600	0.202400	0.567500
C2451	C245	0.176600	0.676600	0.889100
C2461	C246	0.202400	0.702400	0.932500
C2471	C247	0.823400	0.323400	0.889100
C2481	C248	0.797600	0.297600	0.932500
C2491	C249	0.823400	0.823400	0.389100
C2501	C250	0.797600	0.797600	0.432500
C2511	C251	0.176600	0.823400	0.610900
C2521	C252	0.202400	0.797600	0.567500
C2531	C253	0.823400	0.110900	0.323400
C2541	C254	0.797600	0.067500	0.297600
C2551	C255	0.823400	0.610900	0.823400
C2561	C256	0.797600	0.567500	0.797600
C2571	C257	0.176600	0.389100	0.823400
C2581	C258	0.202400	0.432500	0.797600
C2591	C259	0.823400	0.889100	0.676600
C2601	C260	0.797600	0.932500	0.702400
C2611	C261	0.823400	0.389100	0.176600
C2621	C262	0.797600	0.432500	0.202400
C2631	C263	0.176600	0.110900	0.676600
C2641	C264	0.202400	0.067500	0.702400
C2651	C265	0.110900	0.676600	0.176600
C2661	C266	0.067500	0.702400	0.202400
C2671	C267	0.610900	0.676600	0.676600
C2681	C268	0.567500	0.702400	0.702400
C2691	C269	0.889100	0.676600	0.823400
C2701	C270	0.932500	0.702400	0.797600
C2711	C271	0.389100	0.676600	0.323400
C2721	C272	0.432500	0.702400	0.297600
C2731	C273	0.389100	0.323400	0.676600
C2741	C274	0.432500	0.297600	0.702400
C2751	C275	0.110900	0.323400	0.823400
C2761	C276	0.067500	0.297600	0.797600
C2771	C277	0.676600	0.823400	0.889100
C2781	C278	0.702400	0.797600	0.932500
C2791	C279	0.676600	0.323400	0.389100
C2801	C280	0.702400	0.297600	0.432500
C2811	C281	0.676600	0.176600	0.110900
C2821	C282	0.702400	0.202400	0.067500
C2831	C283	0.676600	0.676600	0.610900
C2841	C284	0.702400	0.702400	0.567500
C2851	C285	0.323400	0.823400	0.110900
C2861	C286	0.297600	0.797600	0.067500
C2871	C287	0.323400	0.676600	0.389100
C2881	C288	0.297600	0.702400	0.432500
