data_ZADDAJ_clean_PM
_symmetry_space_group_name_H-M	'P1'
_cell_length_a	7.892000
_cell_length_b	9.272000
_cell_length_c	11.942000
_cell_angle_alpha	104.750000
_cell_angle_beta	101.690000
_cell_angle_gamma	107.920000
_symmetry_Int_Tables_number 1

loop_
_symmetry_equiv_pos_as_xyz
'x,y,z'

loop_
_atom_site_label
_atom_site_type_symbol
_atom_site_fract_x
_atom_site_fract_y
_atom_site_fract_z
Li11	Li1	0.435100	0.935100	0.602200
Li21	Li2	0.473900	0.928000	0.103000
Li31	Li3	0.564900	0.064900	0.397800
Li41	Li4	0.526100	0.072000	0.897000
Fe11	Fe1	0.791140	0.586050	0.773760
Fe21	Fe2	0.208860	0.413950	0.226240
C11	C1	0.544400	0.270400	0.713800
C21	C2	0.706000	0.256000	0.664000
C31	C3	0.162400	0.800200	0.898700
C41	C4	0.091800	0.726800	0.990600
C51	C5	0.615000	0.802200	0.750800
C61	C6	0.621500	0.722000	0.622600
C71	C7	0.455600	0.729600	0.286200
C81	C8	0.294000	0.744000	0.336000
C91	C9	0.837600	0.199800	0.101300
C101	C10	0.908200	0.273200	0.009400
C111	C11	0.385000	0.197800	0.249200
C121	C12	0.378500	0.278000	0.377400
O11	O1	0.560700	0.413200	0.767800
O21	O2	0.842600	0.390400	0.690400
O31	O3	0.414500	0.145400	0.699100
O41	O4	0.693300	0.121800	0.603500
O51	O5	0.047800	0.740700	0.790900
O61	O6	0.920400	0.626500	0.948400
O71	O7	0.318000	0.907400	0.933300
O81	O8	0.197900	0.767500	0.092800
O91	O9	0.689200	0.756100	0.833400
O101	O10	0.701300	0.619700	0.616600
O111	O11	0.542600	0.902700	0.764100
O121	O12	0.553800	0.760700	0.538800
O131	O13	0.439300	0.586800	0.232200
O141	O14	0.157400	0.609600	0.309600
O151	O15	0.585500	0.854600	0.300900
O161	O16	0.306700	0.878200	0.396500
O171	O17	0.952200	0.259300	0.209100
O181	O18	0.079600	0.373500	0.051600
O191	O19	0.682000	0.092600	0.066700
O201	O20	0.802100	0.232500	0.907200
O211	O21	0.310800	0.243900	0.166600
O221	O22	0.298700	0.380300	0.383400
O231	O23	0.457400	0.097300	0.235900
O241	O24	0.446200	0.239300	0.461200
