data_ZAFXAI_clean_PM
_symmetry_space_group_name_H-M	'P1'
_cell_length_a	18.535300
_cell_length_b	18.535300
_cell_length_c	18.535300
_cell_angle_alpha	90.000000
_cell_angle_beta	90.000000
_cell_angle_gamma	90.000000
_symmetry_Int_Tables_number 1

loop_
_symmetry_equiv_pos_as_xyz
'x,y,z'

loop_
_atom_site_label
_atom_site_type_symbol
_atom_site_fract_x
_atom_site_fract_y
_atom_site_fract_z
Y11	Y1	0.986830	0.487700	0.853580
O11	O1	0.067400	0.555500	0.920400
O21	O2	0.976100	0.291100	0.905600
O31	O3	0.789700	0.510000	0.904400
O41	O4	0.869100	0.493200	0.811400
O51	O5	0.975800	0.370000	0.811200
C11	C1	0.976600	0.309000	0.838000
C21	C2	0.744600	0.501400	0.785500
H11	H1	0.697600	0.501400	0.802900
C31	C3	0.975000	0.245700	0.785300
H21	H2	0.973900	0.199100	0.803800
C41	C4	0.806200	0.501300	0.838700
Y21	Y2	0.513170	0.012300	0.853580
O61	O6	0.432600	0.944500	0.920400
O71	O7	0.523900	0.208900	0.905600
O81	O8	0.710300	0.990000	0.904400
O91	O9	0.630900	0.006800	0.811400
O101	O10	0.524200	0.130000	0.811200
C51	C5	0.523400	0.191000	0.838000
C61	C6	0.755400	0.998600	0.785500
H31	H3	0.802400	0.998600	0.802900
C71	C7	0.525000	0.254300	0.785300
H41	H4	0.526100	0.300900	0.803800
C81	C8	0.693800	0.998700	0.838700
Y31	Y3	0.513170	0.487700	0.646420
O111	O11	0.432600	0.555500	0.579600
O121	O12	0.523900	0.291100	0.594400
O131	O13	0.710300	0.510000	0.595600
O141	O14	0.630900	0.493200	0.688600
O151	O15	0.524200	0.370000	0.688800
C91	C9	0.523400	0.309000	0.662000
C101	C10	0.755400	0.501400	0.714500
H51	H5	0.802400	0.501400	0.697100
C111	C11	0.525000	0.245700	0.714700
H61	H6	0.526100	0.199100	0.696200
C121	C12	0.693800	0.501300	0.661300
Y41	Y4	0.986830	0.012300	0.646420
O161	O16	0.067400	0.944500	0.579600
O171	O17	0.976100	0.208900	0.594400
O181	O18	0.789700	0.990000	0.595600
O191	O19	0.869100	0.006800	0.688600
O201	O20	0.975800	0.130000	0.688800
C131	C13	0.976600	0.191000	0.662000
C141	C14	0.744600	0.998600	0.714500
H71	H7	0.697600	0.998600	0.697100
C151	C15	0.975000	0.254300	0.714700
H81	H8	0.973900	0.300900	0.696200
C161	C16	0.806200	0.998700	0.661300
Y51	Y5	0.853580	0.986830	0.487700
O211	O21	0.920400	0.067400	0.555500
O221	O22	0.905600	0.976100	0.291100
O231	O23	0.904400	0.789700	0.510000
O241	O24	0.811400	0.869100	0.493200
O251	O25	0.811200	0.975800	0.370000
C171	C17	0.838000	0.976600	0.309000
C181	C18	0.785500	0.744600	0.501400
H91	H9	0.802900	0.697600	0.501400
C191	C19	0.785300	0.975000	0.245700
H101	H10	0.803800	0.973900	0.199100
C201	C20	0.838700	0.806200	0.501300
Y61	Y6	0.853580	0.513170	0.012300
O261	O26	0.920400	0.432600	0.944500
O271	O27	0.905600	0.523900	0.208900
O281	O28	0.904400	0.710300	0.990000
O291	O29	0.811400	0.630900	0.006800
O301	O30	0.811200	0.524200	0.130000
C211	C21	0.838000	0.523400	0.191000
C221	C22	0.785500	0.755400	0.998600
H111	H11	0.802900	0.802400	0.998600
C231	C23	0.785300	0.525000	0.254300
H121	H12	0.803800	0.526100	0.300900
C241	C24	0.838700	0.693800	0.998700
Y71	Y7	0.646420	0.513170	0.487700
O311	O31	0.579600	0.432600	0.555500
O321	O32	0.594400	0.523900	0.291100
O331	O33	0.595600	0.710300	0.510000
O341	O34	0.688600	0.630900	0.493200
O351	O35	0.688800	0.524200	0.370000
C251	C25	0.662000	0.523400	0.309000
C261	C26	0.714500	0.755400	0.501400
H131	H13	0.697100	0.802400	0.501400
C271	C27	0.714700	0.525000	0.245700
H141	H14	0.696200	0.526100	0.199100
C281	C28	0.661300	0.693800	0.501300
Y81	Y8	0.646420	0.986830	0.012300
O361	O36	0.579600	0.067400	0.944500
O371	O37	0.594400	0.976100	0.208900
O381	O38	0.595600	0.789700	0.990000
O391	O39	0.688600	0.869100	0.006800
O401	O40	0.688800	0.975800	0.130000
C291	C29	0.662000	0.976600	0.191000
C301	C30	0.714500	0.744600	0.998600
H151	H15	0.697100	0.697600	0.998600
C311	C31	0.714700	0.975000	0.254300
H161	H16	0.696200	0.973900	0.300900
C321	C32	0.661300	0.806200	0.998700
Y91	Y9	0.487700	0.853580	0.986830
O411	O41	0.555500	0.920400	0.067400
O421	O42	0.291100	0.905600	0.976100
O431	O43	0.510000	0.904400	0.789700
O441	O44	0.493200	0.811400	0.869100
O451	O45	0.370000	0.811200	0.975800
C331	C33	0.309000	0.838000	0.976600
C341	C34	0.501400	0.785500	0.744600
H171	H17	0.501400	0.802900	0.697600
C351	C35	0.245700	0.785300	0.975000
H181	H18	0.199100	0.803800	0.973900
C361	C36	0.501300	0.838700	0.806200
Y101	Y10	0.012300	0.853580	0.513170
O461	O46	0.944500	0.920400	0.432600
O471	O47	0.208900	0.905600	0.523900
O481	O48	0.990000	0.904400	0.710300
O491	O49	0.006800	0.811400	0.630900
O501	O50	0.130000	0.811200	0.524200
C371	C37	0.191000	0.838000	0.523400
C381	C38	0.998600	0.785500	0.755400
H191	H19	0.998600	0.802900	0.802400
C391	C39	0.254300	0.785300	0.525000
H201	H20	0.300900	0.803800	0.526100
C401	C40	0.998700	0.838700	0.693800
Y111	Y11	0.487700	0.646420	0.513170
O511	O51	0.555500	0.579600	0.432600
O521	O52	0.291100	0.594400	0.523900
O531	O53	0.510000	0.595600	0.710300
O541	O54	0.493200	0.688600	0.630900
O551	O55	0.370000	0.688800	0.524200
C411	C41	0.309000	0.662000	0.523400
C421	C42	0.501400	0.714500	0.755400
H211	H21	0.501400	0.697100	0.802400
C431	C43	0.245700	0.714700	0.525000
H221	H22	0.199100	0.696200	0.526100
C441	C44	0.501300	0.661300	0.693800
Y121	Y12	0.012300	0.646420	0.986830
O561	O56	0.944500	0.579600	0.067400
O571	O57	0.208900	0.594400	0.976100
O581	O58	0.990000	0.595600	0.789700
O591	O59	0.006800	0.688600	0.869100
O601	O60	0.130000	0.688800	0.975800
C451	C45	0.191000	0.662000	0.976600
C461	C46	0.998600	0.714500	0.744600
H231	H23	0.998600	0.697100	0.697600
C471	C47	0.254300	0.714700	0.975000
H241	H24	0.300900	0.696200	0.973900
C481	C48	0.998700	0.661300	0.806200
Y131	Y13	0.013170	0.512300	0.146420
O611	O61	0.932600	0.444500	0.079600
O621	O62	0.023900	0.708900	0.094400
O631	O63	0.210300	0.490000	0.095600
O641	O64	0.130900	0.506800	0.188600
O651	O65	0.024200	0.630000	0.188800
C491	C49	0.023400	0.691000	0.162000
C501	C50	0.255400	0.498600	0.214500
H251	H25	0.302400	0.498600	0.197100
C511	C51	0.025000	0.754300	0.214700
H261	H26	0.026100	0.800900	0.196200
C521	C52	0.193800	0.498700	0.161300
Y141	Y14	0.486830	0.987700	0.146420
O661	O66	0.567400	0.055500	0.079600
O671	O67	0.476100	0.791100	0.094400
O681	O68	0.289700	0.010000	0.095600
O691	O69	0.369100	0.993200	0.188600
O701	O70	0.475800	0.870000	0.188800
C531	C53	0.476600	0.809000	0.162000
C541	C54	0.244600	0.001400	0.214500
H271	H27	0.197600	0.001400	0.197100
C551	C55	0.475000	0.745700	0.214700
H281	H28	0.473900	0.699100	0.196200
C561	C56	0.306200	0.001300	0.161300
Y151	Y15	0.486830	0.512300	0.353580
O711	O71	0.567400	0.444500	0.420400
O721	O72	0.476100	0.708900	0.405600
O731	O73	0.289700	0.490000	0.404400
O741	O74	0.369100	0.506800	0.311400
O751	O75	0.475800	0.630000	0.311200
C571	C57	0.476600	0.691000	0.338000
C581	C58	0.244600	0.498600	0.285500
H291	H29	0.197600	0.498600	0.302900
C591	C59	0.475000	0.754300	0.285300
H301	H30	0.473900	0.800900	0.303800
C601	C60	0.306200	0.498700	0.338700
Y161	Y16	0.013170	0.987700	0.353580
O761	O76	0.932600	0.055500	0.420400
O771	O77	0.023900	0.791100	0.405600
O781	O78	0.210300	0.010000	0.404400
O791	O79	0.130900	0.993200	0.311400
O801	O80	0.024200	0.870000	0.311200
C611	C61	0.023400	0.809000	0.338000
C621	C62	0.255400	0.001400	0.285500
H311	H31	0.302400	0.001400	0.302900
C631	C63	0.025000	0.745700	0.285300
H321	H32	0.026100	0.699100	0.303800
C641	C64	0.193800	0.001300	0.338700
Y171	Y17	0.146420	0.013170	0.512300
O811	O81	0.079600	0.932600	0.444500
O821	O82	0.094400	0.023900	0.708900
O831	O83	0.095600	0.210300	0.490000
O841	O84	0.188600	0.130900	0.506800
O851	O85	0.188800	0.024200	0.630000
C651	C65	0.162000	0.023400	0.691000
C661	C66	0.214500	0.255400	0.498600
H331	H33	0.197100	0.302400	0.498600
C671	C67	0.214700	0.025000	0.754300
H341	H34	0.196200	0.026100	0.800900
C681	C68	0.161300	0.193800	0.498700
Y181	Y18	0.146420	0.486830	0.987700
O861	O86	0.079600	0.567400	0.055500
O871	O87	0.094400	0.476100	0.791100
O881	O88	0.095600	0.289700	0.010000
O891	O89	0.188600	0.369100	0.993200
O901	O90	0.188800	0.475800	0.870000
C691	C69	0.162000	0.476600	0.809000
C701	C70	0.214500	0.244600	0.001400
H351	H35	0.197100	0.197600	0.001400
C711	C71	0.214700	0.475000	0.745700
H361	H36	0.196200	0.473900	0.699100
C721	C72	0.161300	0.306200	0.001300
Y191	Y19	0.353580	0.486830	0.512300
O911	O91	0.420400	0.567400	0.444500
O921	O92	0.405600	0.476100	0.708900
O931	O93	0.404400	0.289700	0.490000
O941	O94	0.311400	0.369100	0.506800
O951	O95	0.311200	0.475800	0.630000
C731	C73	0.338000	0.476600	0.691000
C741	C74	0.285500	0.244600	0.498600
H371	H37	0.302900	0.197600	0.498600
C751	C75	0.285300	0.475000	0.754300
H381	H38	0.303800	0.473900	0.800900
C761	C76	0.338700	0.306200	0.498700
Y201	Y20	0.353580	0.013170	0.987700
O961	O96	0.420400	0.932600	0.055500
O971	O97	0.405600	0.023900	0.791100
O981	O98	0.404400	0.210300	0.010000
O991	O99	0.311400	0.130900	0.993200
O1001	O100	0.311200	0.024200	0.870000
C771	C77	0.338000	0.023400	0.809000
C781	C78	0.285500	0.255400	0.001400
H391	H39	0.302900	0.302400	0.001400
C791	C79	0.285300	0.025000	0.745700
H401	H40	0.303800	0.026100	0.699100
C801	C80	0.338700	0.193800	0.001300
Y211	Y21	0.512300	0.146420	0.013170
O1011	O101	0.444500	0.079600	0.932600
O1021	O102	0.708900	0.094400	0.023900
O1031	O103	0.490000	0.095600	0.210300
O1041	O104	0.506800	0.188600	0.130900
O1051	O105	0.630000	0.188800	0.024200
C811	C81	0.691000	0.162000	0.023400
C821	C82	0.498600	0.214500	0.255400
H411	H41	0.498600	0.197100	0.302400
C831	C83	0.754300	0.214700	0.025000
H421	H42	0.800900	0.196200	0.026100
C841	C84	0.498700	0.161300	0.193800
Y221	Y22	0.987700	0.146420	0.486830
O1061	O106	0.055500	0.079600	0.567400
O1071	O107	0.791100	0.094400	0.476100
O1081	O108	0.010000	0.095600	0.289700
O1091	O109	0.993200	0.188600	0.369100
O1101	O110	0.870000	0.188800	0.475800
C851	C85	0.809000	0.162000	0.476600
C861	C86	0.001400	0.214500	0.244600
H431	H43	0.001400	0.197100	0.197600
C871	C87	0.745700	0.214700	0.475000
H441	H44	0.699100	0.196200	0.473900
C881	C88	0.001300	0.161300	0.306200
Y231	Y23	0.512300	0.353580	0.486830
O1111	O111	0.444500	0.420400	0.567400
O1121	O112	0.708900	0.405600	0.476100
O1131	O113	0.490000	0.404400	0.289700
O1141	O114	0.506800	0.311400	0.369100
O1151	O115	0.630000	0.311200	0.475800
C891	C89	0.691000	0.338000	0.476600
C901	C90	0.498600	0.285500	0.244600
H451	H45	0.498600	0.302900	0.197600
C911	C91	0.754300	0.285300	0.475000
H461	H46	0.800900	0.303800	0.473900
C921	C92	0.498700	0.338700	0.306200
Y241	Y24	0.987700	0.353580	0.013170
O1161	O116	0.055500	0.420400	0.932600
O1171	O117	0.791100	0.405600	0.023900
O1181	O118	0.010000	0.404400	0.210300
O1191	O119	0.993200	0.311400	0.130900
O1201	O120	0.870000	0.311200	0.024200
C931	C93	0.809000	0.338000	0.023400
C941	C94	0.001400	0.285500	0.255400
H471	H47	0.001400	0.302900	0.302400
C951	C95	0.745700	0.285300	0.025000
H481	H48	0.699100	0.303800	0.026100
C961	C96	0.001300	0.338700	0.193800
O1211	O121	0.932900	0.567100	0.932900
O1221	O122	0.567100	0.932900	0.932900
O1231	O123	0.567100	0.567100	0.567100
O1241	O124	0.932900	0.932900	0.567100
O1251	O125	0.067100	0.432900	0.067100
O1261	O126	0.432900	0.067100	0.067100
O1271	O127	0.432900	0.432900	0.432900
O1281	O128	0.067100	0.067100	0.432900
