data_ZAGHAT_clean_PM
_symmetry_space_group_name_H-M	'P1'
_cell_length_a	8.158400
_cell_length_b	8.158400
_cell_length_c	12.139900
_cell_angle_alpha	90.000000
_cell_angle_beta	90.000000
_cell_angle_gamma	120.000000
_symmetry_Int_Tables_number 1

loop_
_symmetry_equiv_pos_as_xyz
'x,y,z'

loop_
_atom_site_label
_atom_site_type_symbol
_atom_site_fract_x
_atom_site_fract_y
_atom_site_fract_z
O11	O1	0.293400	0.761500	0.568510
O21	O2	0.162100	0.494200	0.474640
C11	C1	0.262100	0.594700	0.553080
C21	C2	0.344900	0.512000	0.630400
H11	H1	0.354000	0.410200	0.593100
H21	H2	0.263500	0.460800	0.695400
H31	H3	0.471500	0.610800	0.653200
O31	O3	0.238500	0.531900	0.235180
O41	O4	0.505800	0.667900	0.141310
C31	C3	0.405300	0.667400	0.219750
C41	C4	0.488000	0.832900	0.297070
H41	H4	0.589800	0.943800	0.259770
H51	H5	0.539200	0.802700	0.362070
H61	H6	0.389200	0.860700	0.319870
O51	O5	0.468100	0.706600	0.901840
O61	O6	0.332100	0.837900	0.807970
C51	C5	0.332600	0.737900	0.886410
C61	C6	0.167100	0.655100	0.963730
H71	H7	0.056200	0.646000	0.926430
H81	H8	0.197300	0.736500	0.028730
H91	H9	0.139300	0.528500	0.986530
O71	O7	0.761500	0.293400	0.431490
O81	O8	0.494200	0.162100	0.525360
C71	C7	0.594700	0.262100	0.446920
C81	C8	0.512000	0.344900	0.369600
H101	H10	0.410200	0.354000	0.406900
H111	H11	0.460800	0.263500	0.304600
H121	H12	0.610800	0.471500	0.346800
O91	O9	0.531900	0.238500	0.764820
O101	O10	0.667900	0.505800	0.858690
C91	C9	0.667400	0.405300	0.780250
C101	C10	0.832900	0.488000	0.702930
H131	H13	0.943800	0.589800	0.740230
H141	H14	0.802700	0.539200	0.637930
H151	H15	0.860700	0.389200	0.680130
O111	O11	0.706600	0.468100	0.098160
O121	O12	0.837900	0.332100	0.192030
C111	C11	0.737900	0.332600	0.113590
C121	C12	0.655100	0.167100	0.036270
H161	H16	0.646000	0.056200	0.073570
H171	H17	0.736500	0.197300	0.971270
H181	H18	0.528500	0.139300	0.013470
Sc11	Sc1	0.416480	0.000000	0.666670
Sc21	Sc2	0.000000	0.416480	0.333330
Sc31	Sc3	0.583520	0.583520	0.000000
