data_ZAHLEC_clean_PM
_symmetry_space_group_name_H-M	'P1'
_cell_length_a	31.786400
_cell_length_b	33.339500
_cell_length_c	11.677300
_cell_angle_alpha	90.000000
_cell_angle_beta	90.000000
_cell_angle_gamma	90.000000
_symmetry_Int_Tables_number 1

loop_
_symmetry_equiv_pos_as_xyz
'x,y,z'

loop_
_atom_site_label
_atom_site_type_symbol
_atom_site_fract_x
_atom_site_fract_y
_atom_site_fract_z
O11	O1	0.734370	0.290620	0.898500
O21	O2	0.694710	0.290960	0.738900
N11	N1	0.544080	0.461810	0.054580
N21	N2	0.592090	0.414490	0.044200
C11	C1	0.566080	0.439200	0.986700
H11	H1	0.564100	0.440000	0.905600
C21	C2	0.674620	0.331710	0.895100
C31	C3	0.703430	0.302160	0.838700
C41	C4	0.619940	0.386320	0.993800
C51	C5	0.681470	0.345040	0.004800
H21	H2	0.704900	0.335200	0.046800
C61	C6	0.612080	0.372510	0.885700
H31	H3	0.588100	0.381800	0.844800
C71	C7	0.639170	0.344900	0.835600
H41	H4	0.633500	0.335000	0.760800
C81	C8	0.654540	0.372600	0.054900
H51	H5	0.659700	0.382000	0.130400
C91	C9	0.585270	0.421950	0.156500
H61	H6	0.598500	0.409000	0.219500
C101	C10	0.556000	0.451320	0.161700
H71	H7	0.545400	0.462900	0.230300
O31	O3	0.234370	0.790620	0.398500
O41	O4	0.194710	0.790960	0.238900
N31	N3	0.044080	0.961810	0.554580
N41	N4	0.092090	0.914490	0.544200
C111	C11	0.066080	0.939200	0.486700
H81	H8	0.064100	0.940000	0.405600
C121	C12	0.174620	0.831710	0.395100
C131	C13	0.203430	0.802160	0.338700
C141	C14	0.119940	0.886320	0.493800
C151	C15	0.181470	0.845040	0.504800
H91	H9	0.204900	0.835200	0.546800
C161	C16	0.112080	0.872510	0.385700
H101	H10	0.088100	0.881800	0.344800
C171	C17	0.139170	0.844900	0.335600
H111	H11	0.133500	0.835000	0.260800
C181	C18	0.154540	0.872600	0.554900
H121	H12	0.159700	0.882000	0.630400
C191	C19	0.085270	0.921950	0.656500
H131	H13	0.098500	0.909000	0.719500
C201	C20	0.056000	0.951320	0.661700
H141	H14	0.045400	0.962900	0.730300
O51	O5	0.265630	0.209380	0.898500
O61	O6	0.305290	0.209040	0.738900
N51	N5	0.455920	0.038190	0.054580
N61	N6	0.407910	0.085510	0.044200
C211	C21	0.433920	0.060800	0.986700
H151	H15	0.435900	0.060000	0.905600
C221	C22	0.325380	0.168290	0.895100
C231	C23	0.296570	0.197840	0.838700
C241	C24	0.380060	0.113680	0.993800
C251	C25	0.318530	0.154960	0.004800
H161	H16	0.295100	0.164800	0.046800
C261	C26	0.387920	0.127490	0.885700
H171	H17	0.411900	0.118200	0.844800
C271	C27	0.360830	0.155100	0.835600
H181	H18	0.366500	0.165000	0.760800
C281	C28	0.345460	0.127400	0.054900
H191	H19	0.340300	0.118000	0.130400
C291	C29	0.414730	0.078050	0.156500
H201	H20	0.401500	0.091000	0.219500
C301	C30	0.444000	0.048680	0.161700
H211	H21	0.454600	0.037100	0.230300
O71	O7	0.765630	0.709380	0.398500
O81	O8	0.805290	0.709040	0.238900
N71	N7	0.955920	0.538190	0.554580
N81	N8	0.907910	0.585510	0.544200
C311	C31	0.933920	0.560800	0.486700
H221	H22	0.935900	0.560000	0.405600
C321	C32	0.825380	0.668290	0.395100
C331	C33	0.796570	0.697840	0.338700
C341	C34	0.880060	0.613680	0.493800
C351	C35	0.818530	0.654960	0.504800
H231	H23	0.795100	0.664800	0.546800
C361	C36	0.887920	0.627490	0.385700
H241	H24	0.911900	0.618200	0.344800
C371	C37	0.860830	0.655100	0.335600
H251	H25	0.866500	0.665000	0.260800
C381	C38	0.845460	0.627400	0.554900
H261	H26	0.840300	0.618000	0.630400
C391	C39	0.914730	0.578050	0.656500
H271	H27	0.901500	0.591000	0.719500
C401	C40	0.944000	0.548680	0.661700
H281	H28	0.954600	0.537100	0.730300
O91	O9	0.265630	0.790620	0.101500
O101	O10	0.305290	0.790960	0.261100
N91	N9	0.455920	0.961810	0.945420
N101	N10	0.407910	0.914490	0.955800
C411	C41	0.433920	0.939200	0.013300
H291	H29	0.435900	0.940000	0.094400
C421	C42	0.325380	0.831710	0.104900
C431	C43	0.296570	0.802160	0.161300
C441	C44	0.380060	0.886320	0.006200
C451	C45	0.318530	0.845040	0.995200
H301	H30	0.295100	0.835200	0.953200
C461	C46	0.387920	0.872510	0.114300
H311	H31	0.411900	0.881800	0.155200
C471	C47	0.360830	0.844900	0.164400
H321	H32	0.366500	0.835000	0.239200
C481	C48	0.345460	0.872600	0.945100
H331	H33	0.340300	0.882000	0.869600
C491	C49	0.414730	0.921950	0.843500
H341	H34	0.401500	0.909000	0.780500
C501	C50	0.444000	0.951320	0.838300
H351	H35	0.454600	0.962900	0.769700
O111	O11	0.765630	0.290620	0.601500
O121	O12	0.805290	0.290960	0.761100
N111	N11	0.955920	0.461810	0.445420
N121	N12	0.907910	0.414490	0.455800
C511	C51	0.933920	0.439200	0.513300
H361	H36	0.935900	0.440000	0.594400
C521	C52	0.825380	0.331710	0.604900
C531	C53	0.796570	0.302160	0.661300
C541	C54	0.880060	0.386320	0.506200
C551	C55	0.818530	0.345040	0.495200
H371	H37	0.795100	0.335200	0.453200
C561	C56	0.887920	0.372510	0.614300
H381	H38	0.911900	0.381800	0.655200
C571	C57	0.860830	0.344900	0.664400
H391	H39	0.866500	0.335000	0.739200
C581	C58	0.845460	0.372600	0.445100
H401	H40	0.840300	0.382000	0.369600
C591	C59	0.914730	0.421950	0.343500
H411	H41	0.901500	0.409000	0.280500
C601	C60	0.944000	0.451320	0.338300
H421	H42	0.954600	0.462900	0.269700
O131	O13	0.734370	0.709380	0.101500
O141	O14	0.694710	0.709040	0.261100
N131	N13	0.544080	0.538190	0.945420
N141	N14	0.592090	0.585510	0.955800
C611	C61	0.566080	0.560800	0.013300
H431	H43	0.564100	0.560000	0.094400
C621	C62	0.674620	0.668290	0.104900
C631	C63	0.703430	0.697840	0.161300
C641	C64	0.619940	0.613680	0.006200
C651	C65	0.681470	0.654960	0.995200
H441	H44	0.704900	0.664800	0.953200
C661	C66	0.612080	0.627490	0.114300
H451	H45	0.588100	0.618200	0.155200
C671	C67	0.639170	0.655100	0.164400
H461	H46	0.633500	0.665000	0.239200
C681	C68	0.654540	0.627400	0.945100
H471	H47	0.659700	0.618000	0.869600
C691	C69	0.585270	0.578050	0.843500
H481	H48	0.598500	0.591000	0.780500
C701	C70	0.556000	0.548680	0.838300
H491	H49	0.545400	0.537100	0.769700
O151	O15	0.234370	0.209380	0.601500
O161	O16	0.194710	0.209040	0.761100
N151	N15	0.044080	0.038190	0.445420
N161	N16	0.092090	0.085510	0.455800
C711	C71	0.066080	0.060800	0.513300
H501	H50	0.064100	0.060000	0.594400
C721	C72	0.174620	0.168290	0.604900
C731	C73	0.203430	0.197840	0.661300
C741	C74	0.119940	0.113680	0.506200
C751	C75	0.181470	0.154960	0.495200
H511	H51	0.204900	0.164800	0.453200
C761	C76	0.112080	0.127490	0.614300
H521	H52	0.088100	0.118200	0.655200
C771	C77	0.139170	0.155100	0.664400
H531	H53	0.133500	0.165000	0.739200
C781	C78	0.154540	0.127400	0.445100
H541	H54	0.159700	0.118000	0.369600
C791	C79	0.085270	0.078050	0.343500
H551	H55	0.098500	0.091000	0.280500
C801	C80	0.056000	0.048680	0.338300
H561	H56	0.045400	0.037100	0.269700
O171	O17	0.265630	0.709380	0.101500
O181	O18	0.305290	0.709040	0.261100
N171	N17	0.455920	0.538190	0.945420
N181	N18	0.407910	0.585510	0.955800
C811	C81	0.433920	0.560800	0.013300
H571	H57	0.435900	0.560000	0.094400
C821	C82	0.325380	0.668290	0.104900
C831	C83	0.296570	0.697840	0.161300
C841	C84	0.380060	0.613680	0.006200
C851	C85	0.318530	0.654960	0.995200
H581	H58	0.295100	0.664800	0.953200
C861	C86	0.387920	0.627490	0.114300
H591	H59	0.411900	0.618200	0.155200
C871	C87	0.360830	0.655100	0.164400
H601	H60	0.366500	0.665000	0.239200
C881	C88	0.345460	0.627400	0.945100
H611	H61	0.340300	0.618000	0.869600
C891	C89	0.414730	0.578050	0.843500
H621	H62	0.401500	0.591000	0.780500
C901	C90	0.444000	0.548680	0.838300
H631	H63	0.454600	0.537100	0.769700
O191	O19	0.765630	0.209380	0.601500
O201	O20	0.805290	0.209040	0.761100
N191	N19	0.955920	0.038190	0.445420
N201	N20	0.907910	0.085510	0.455800
C911	C91	0.933920	0.060800	0.513300
H641	H64	0.935900	0.060000	0.594400
C921	C92	0.825380	0.168290	0.604900
C931	C93	0.796570	0.197840	0.661300
C941	C94	0.880060	0.113680	0.506200
C951	C95	0.818530	0.154960	0.495200
H651	H65	0.795100	0.164800	0.453200
C961	C96	0.887920	0.127490	0.614300
H661	H66	0.911900	0.118200	0.655200
C971	C97	0.860830	0.155100	0.664400
H671	H67	0.866500	0.165000	0.739200
C981	C98	0.845460	0.127400	0.445100
H681	H68	0.840300	0.118000	0.369600
C991	C99	0.914730	0.078050	0.343500
H691	H69	0.901500	0.091000	0.280500
C1001	C100	0.944000	0.048680	0.338300
H701	H70	0.954600	0.037100	0.269700
O211	O21	0.734370	0.790620	0.101500
O221	O22	0.694710	0.790960	0.261100
N211	N21	0.544080	0.961810	0.945420
N221	N22	0.592090	0.914490	0.955800
C1011	C101	0.566080	0.939200	0.013300
H711	H71	0.564100	0.940000	0.094400
C1021	C102	0.674620	0.831710	0.104900
C1031	C103	0.703430	0.802160	0.161300
C1041	C104	0.619940	0.886320	0.006200
C1051	C105	0.681470	0.845040	0.995200
H721	H72	0.704900	0.835200	0.953200
C1061	C106	0.612080	0.872510	0.114300
H731	H73	0.588100	0.881800	0.155200
C1071	C107	0.639170	0.844900	0.164400
H741	H74	0.633500	0.835000	0.239200
C1081	C108	0.654540	0.872600	0.945100
H751	H75	0.659700	0.882000	0.869600
C1091	C109	0.585270	0.921950	0.843500
H761	H76	0.598500	0.909000	0.780500
C1101	C110	0.556000	0.951320	0.838300
H771	H77	0.545400	0.962900	0.769700
O231	O23	0.234370	0.290620	0.601500
O241	O24	0.194710	0.290960	0.761100
N231	N23	0.044080	0.461810	0.445420
N241	N24	0.092090	0.414490	0.455800
C1111	C111	0.066080	0.439200	0.513300
H781	H78	0.064100	0.440000	0.594400
C1121	C112	0.174620	0.331710	0.604900
C1131	C113	0.203430	0.302160	0.661300
C1141	C114	0.119940	0.386320	0.506200
C1151	C115	0.181470	0.345040	0.495200
H791	H79	0.204900	0.335200	0.453200
C1161	C116	0.112080	0.372510	0.614300
H801	H80	0.088100	0.381800	0.655200
C1171	C117	0.139170	0.344900	0.664400
H811	H81	0.133500	0.335000	0.739200
C1181	C118	0.154540	0.372600	0.445100
H821	H82	0.159700	0.382000	0.369600
C1191	C119	0.085270	0.421950	0.343500
H831	H83	0.098500	0.409000	0.280500
C1201	C120	0.056000	0.451320	0.338300
H841	H84	0.045400	0.462900	0.269700
O251	O25	0.734370	0.209380	0.898500
O261	O26	0.694710	0.209040	0.738900
N251	N25	0.544080	0.038190	0.054580
N261	N26	0.592090	0.085510	0.044200
C1211	C121	0.566080	0.060800	0.986700
H851	H85	0.564100	0.060000	0.905600
C1221	C122	0.674620	0.168290	0.895100
C1231	C123	0.703430	0.197840	0.838700
C1241	C124	0.619940	0.113680	0.993800
C1251	C125	0.681470	0.154960	0.004800
H861	H86	0.704900	0.164800	0.046800
C1261	C126	0.612080	0.127490	0.885700
H871	H87	0.588100	0.118200	0.844800
C1271	C127	0.639170	0.155100	0.835600
H881	H88	0.633500	0.165000	0.760800
C1281	C128	0.654540	0.127400	0.054900
H891	H89	0.659700	0.118000	0.130400
C1291	C129	0.585270	0.078050	0.156500
H901	H90	0.598500	0.091000	0.219500
C1301	C130	0.556000	0.048680	0.161700
H911	H91	0.545400	0.037100	0.230300
O271	O27	0.234370	0.709380	0.398500
O281	O28	0.194710	0.709040	0.238900
N271	N27	0.044080	0.538190	0.554580
N281	N28	0.092090	0.585510	0.544200
C1311	C131	0.066080	0.560800	0.486700
H921	H92	0.064100	0.560000	0.405600
C1321	C132	0.174620	0.668290	0.395100
C1331	C133	0.203430	0.697840	0.338700
C1341	C134	0.119940	0.613680	0.493800
C1351	C135	0.181470	0.654960	0.504800
H931	H93	0.204900	0.664800	0.546800
C1361	C136	0.112080	0.627490	0.385700
H941	H94	0.088100	0.618200	0.344800
C1371	C137	0.139170	0.655100	0.335600
H951	H95	0.133500	0.665000	0.260800
C1381	C138	0.154540	0.627400	0.554900
H961	H96	0.159700	0.618000	0.630400
C1391	C139	0.085270	0.578050	0.656500
H971	H97	0.098500	0.591000	0.719500
C1401	C140	0.056000	0.548680	0.661700
H981	H98	0.045400	0.537100	0.730300
O291	O29	0.265630	0.290620	0.898500
O301	O30	0.305290	0.290960	0.738900
N291	N29	0.455920	0.461810	0.054580
N301	N30	0.407910	0.414490	0.044200
C1411	C141	0.433920	0.439200	0.986700
H991	H99	0.435900	0.440000	0.905600
C1421	C142	0.325380	0.331710	0.895100
C1431	C143	0.296570	0.302160	0.838700
C1441	C144	0.380060	0.386320	0.993800
C1451	C145	0.318530	0.345040	0.004800
H1001	H100	0.295100	0.335200	0.046800
C1461	C146	0.387920	0.372510	0.885700
H1011	H101	0.411900	0.381800	0.844800
C1471	C147	0.360830	0.344900	0.835600
H1021	H102	0.366500	0.335000	0.760800
C1481	C148	0.345460	0.372600	0.054900
H1031	H103	0.340300	0.382000	0.130400
C1491	C149	0.414730	0.421950	0.156500
H1041	H104	0.401500	0.409000	0.219500
C1501	C150	0.444000	0.451320	0.161700
H1051	H105	0.454600	0.462900	0.230300
O311	O31	0.765630	0.790620	0.398500
O321	O32	0.805290	0.790960	0.238900
N311	N31	0.955920	0.961810	0.554580
N321	N32	0.907910	0.914490	0.544200
C1511	C151	0.933920	0.939200	0.486700
H1061	H106	0.935900	0.940000	0.405600
C1521	C152	0.825380	0.831710	0.395100
C1531	C153	0.796570	0.802160	0.338700
C1541	C154	0.880060	0.886320	0.493800
C1551	C155	0.818530	0.845040	0.504800
H1071	H107	0.795100	0.835200	0.546800
C1561	C156	0.887920	0.872510	0.385700
H1081	H108	0.911900	0.881800	0.344800
C1571	C157	0.860830	0.844900	0.335600
H1091	H109	0.866500	0.835000	0.260800
C1581	C158	0.845460	0.872600	0.554900
H1101	H110	0.840300	0.882000	0.630400
C1591	C159	0.914730	0.921950	0.656500
H1111	H111	0.901500	0.909000	0.719500
C1601	C160	0.944000	0.951320	0.661700
H1121	H112	0.954600	0.962900	0.730300
Cu11	Cu1	0.500000	0.500000	0.000000
Cu21	Cu2	0.000000	0.000000	0.500000
Cu31	Cu3	0.500000	0.000000	0.000000
Cu41	Cu4	0.000000	0.500000	0.500000
Cu51	Cu5	0.773760	0.250000	0.843240
Cu61	Cu6	0.273760	0.750000	0.343240
Cu71	Cu7	0.226240	0.250000	0.843240
Cu81	Cu8	0.726240	0.750000	0.343240
Cu91	Cu9	0.226240	0.750000	0.156760
Cu101	Cu10	0.726240	0.250000	0.656760
Cu111	Cu11	0.773760	0.750000	0.156760
Cu121	Cu12	0.273760	0.250000	0.656760
