data_ZAQWEW_clean_PM
_symmetry_space_group_name_H-M	'P1'
_cell_length_a	26.615200
_cell_length_b	11.744900
_cell_length_c	29.592300
_cell_angle_alpha	90.000000
_cell_angle_beta	90.000000
_cell_angle_gamma	90.000000
_symmetry_Int_Tables_number 1

loop_
_symmetry_equiv_pos_as_xyz
'x,y,z'

loop_
_atom_site_label
_atom_site_type_symbol
_atom_site_fract_x
_atom_site_fract_y
_atom_site_fract_z
Cd11	Cd1	0.720960	0.779630	0.481380
Cd21	Cd2	0.494250	0.260710	0.622390
O11	O1	0.720340	0.938400	0.537860
O21	O2	0.675320	0.785900	0.549390
O31	O3	0.568290	0.757100	0.691570
O41	O4	0.540930	0.919900	0.716140
O51	O5	0.577790	0.287000	0.621060
O61	O6	0.556440	0.252200	0.692030
O71	O7	0.642480	0.607500	0.694820
H11	H1	0.624100	0.665500	0.696300
O81	O8	0.577540	0.493200	0.685780
O91	O9	0.458920	0.597100	0.716140
O101	O10	0.427330	0.762100	0.699020
O111	O11	0.275490	0.750300	0.587400
O121	O12	0.259630	0.581500	0.560050
O131	O13	0.355810	0.911400	0.709140
H21	H2	0.373900	0.852800	0.709000
O141	O14	0.418430	0.022400	0.686000
O151	O15	0.408760	0.234800	0.623550
O161	O16	0.440880	0.263200	0.691200
C11	C1	0.690080	0.883100	0.561120
C21	C2	0.668120	0.935900	0.603570
C31	C3	0.633140	0.875900	0.628800
H31	H3	0.624100	0.802400	0.620400
C41	C4	0.611560	0.926000	0.666720
C51	C5	0.625550	0.035800	0.679250
H41	H4	0.610400	0.069800	0.704200
C61	C6	0.661800	0.095600	0.655020
C71	C7	0.683510	0.044000	0.616790
H51	H5	0.708100	0.082200	0.600400
C81	C8	0.571450	0.864300	0.693210
C91	C9	0.677930	0.212900	0.668330
C101	C10	0.642800	0.302100	0.674550
C111	C11	0.659380	0.411000	0.685930
C121	C12	0.710630	0.431400	0.692670
H61	H6	0.721400	0.503500	0.701300
C131	C13	0.745140	0.345600	0.686590
H71	H7	0.779200	0.359600	0.690900
C141	C14	0.728860	0.238500	0.673950
H81	H8	0.752500	0.181600	0.669000
C151	C15	0.588350	0.279400	0.663080
C161	C16	0.622200	0.506400	0.688880
C171	C17	0.424640	0.653000	0.698890
C181	C18	0.380500	0.593600	0.677650
C191	C19	0.350920	0.648700	0.645370
H91	H9	0.357500	0.723900	0.637600
C201	C20	0.311360	0.590300	0.624730
C211	C21	0.301130	0.477400	0.637260
H101	H10	0.275000	0.438500	0.623200
C221	C22	0.329730	0.422000	0.670600
C231	C23	0.369730	0.482200	0.689700
H111	H11	0.389800	0.446300	0.711200
C241	C24	0.280310	0.645300	0.588860
C251	C25	0.316760	0.304800	0.685590
C261	C26	0.352700	0.215800	0.685510
C271	C27	0.338660	0.107100	0.700240
C281	C28	0.290180	0.088100	0.716030
H121	H12	0.281500	0.016900	0.727400
C291	C29	0.254450	0.174500	0.715040
H131	H13	0.221800	0.161000	0.724900
C301	C30	0.268100	0.280800	0.699200
H141	H14	0.243900	0.337800	0.697600
C311	C31	0.375030	0.010900	0.697400
C321	C32	0.404620	0.238500	0.666190
Cd31	Cd3	0.779040	0.720370	0.981380
Cd41	Cd4	0.005750	0.239290	0.122390
O171	O17	0.779660	0.561600	0.037860
O181	O18	0.824680	0.714100	0.049390
O191	O19	0.931710	0.742900	0.191570
O201	O20	0.959070	0.580100	0.216140
O211	O21	0.922210	0.213000	0.121060
O221	O22	0.943560	0.247800	0.192030
O231	O23	0.857520	0.892500	0.194820
H151	H15	0.875900	0.834500	0.196300
O241	O24	0.922460	0.006800	0.185780
O251	O25	0.041080	0.902900	0.216140
O261	O26	0.072670	0.737900	0.199020
O271	O27	0.224510	0.749700	0.087400
O281	O28	0.240370	0.918500	0.060050
O291	O29	0.144190	0.588600	0.209140
H161	H16	0.126100	0.647200	0.209000
O301	O30	0.081570	0.477600	0.186000
O311	O31	0.091240	0.265200	0.123550
O321	O32	0.059120	0.236800	0.191200
C331	C33	0.809920	0.616900	0.061120
C341	C34	0.831880	0.564100	0.103570
C351	C35	0.866860	0.624100	0.128800
H171	H17	0.875900	0.697600	0.120400
C361	C36	0.888440	0.574000	0.166720
C371	C37	0.874450	0.464200	0.179250
H181	H18	0.889600	0.430200	0.204200
C381	C38	0.838200	0.404400	0.155020
C391	C39	0.816490	0.456000	0.116790
H191	H19	0.791900	0.417800	0.100400
C401	C40	0.928550	0.635700	0.193210
C411	C41	0.822070	0.287100	0.168330
C421	C42	0.857200	0.197900	0.174550
C431	C43	0.840620	0.089000	0.185930
C441	C44	0.789370	0.068600	0.192670
H201	H20	0.778600	0.996500	0.201300
C451	C45	0.754860	0.154400	0.186590
H211	H21	0.720800	0.140400	0.190900
C461	C46	0.771140	0.261500	0.173950
H221	H22	0.747500	0.318400	0.169000
C471	C47	0.911650	0.220600	0.163080
C481	C48	0.877800	0.993600	0.188880
C491	C49	0.075360	0.847000	0.198890
C501	C50	0.119500	0.906400	0.177650
C511	C51	0.149080	0.851300	0.145370
H231	H23	0.142500	0.776100	0.137600
C521	C52	0.188640	0.909700	0.124730
C531	C53	0.198870	0.022600	0.137260
H241	H24	0.225000	0.061500	0.123200
C541	C54	0.170270	0.078000	0.170600
C551	C55	0.130270	0.017800	0.189700
H251	H25	0.110200	0.053700	0.211200
C561	C56	0.219690	0.854700	0.088860
C571	C57	0.183240	0.195200	0.185590
C581	C58	0.147300	0.284200	0.185510
C591	C59	0.161340	0.392900	0.200240
C601	C60	0.209820	0.411900	0.216030
H261	H26	0.218500	0.483100	0.227400
C611	C61	0.245550	0.325500	0.215040
H271	H27	0.278200	0.339000	0.224900
C621	C62	0.231900	0.219200	0.199200
H281	H28	0.256100	0.162200	0.197600
C631	C63	0.124970	0.489100	0.197400
C641	C64	0.095380	0.261500	0.166190
Cd51	Cd5	0.279040	0.779630	0.018620
Cd61	Cd6	0.505750	0.260710	0.877610
O331	O33	0.279660	0.938400	0.962140
O341	O34	0.324680	0.785900	0.950610
O351	O35	0.431710	0.757100	0.808430
O361	O36	0.459070	0.919900	0.783860
O371	O37	0.422210	0.287000	0.878940
O381	O38	0.443560	0.252200	0.807970
O391	O39	0.357520	0.607500	0.805180
H291	H29	0.375900	0.665500	0.803700
O401	O40	0.422460	0.493200	0.814220
O411	O41	0.541080	0.597100	0.783860
O421	O42	0.572670	0.762100	0.800980
O431	O43	0.724510	0.750300	0.912600
O441	O44	0.740370	0.581500	0.939950
O451	O45	0.644190	0.911400	0.790860
H301	H30	0.626100	0.852800	0.791000
O461	O46	0.581570	0.022400	0.814000
O471	O47	0.591240	0.234800	0.876450
O481	O48	0.559120	0.263200	0.808800
C651	C65	0.309920	0.883100	0.938880
C661	C66	0.331880	0.935900	0.896430
C671	C67	0.366860	0.875900	0.871200
H311	H31	0.375900	0.802400	0.879600
C681	C68	0.388440	0.926000	0.833280
C691	C69	0.374450	0.035800	0.820750
H321	H32	0.389600	0.069800	0.795800
C701	C70	0.338200	0.095600	0.844980
C711	C71	0.316490	0.044000	0.883210
H331	H33	0.291900	0.082200	0.899600
C721	C72	0.428550	0.864300	0.806790
C731	C73	0.322070	0.212900	0.831670
C741	C74	0.357200	0.302100	0.825450
C751	C75	0.340620	0.411000	0.814070
C761	C76	0.289370	0.431400	0.807330
H341	H34	0.278600	0.503500	0.798700
C771	C77	0.254860	0.345600	0.813410
H351	H35	0.220800	0.359600	0.809100
C781	C78	0.271140	0.238500	0.826050
H361	H36	0.247500	0.181600	0.831000
C791	C79	0.411650	0.279400	0.836920
C801	C80	0.377800	0.506400	0.811120
C811	C81	0.575360	0.653000	0.801110
C821	C82	0.619500	0.593600	0.822350
C831	C83	0.649080	0.648700	0.854630
H371	H37	0.642500	0.723900	0.862400
C841	C84	0.688640	0.590300	0.875270
C851	C85	0.698870	0.477400	0.862740
H381	H38	0.725000	0.438500	0.876800
C861	C86	0.670270	0.422000	0.829400
C871	C87	0.630270	0.482200	0.810300
H391	H39	0.610200	0.446300	0.788800
C881	C88	0.719690	0.645300	0.911140
C891	C89	0.683240	0.304800	0.814410
C901	C90	0.647300	0.215800	0.814490
C911	C91	0.661340	0.107100	0.799760
C921	C92	0.709820	0.088100	0.783970
H401	H40	0.718500	0.016900	0.772600
C931	C93	0.745550	0.174500	0.784960
H411	H41	0.778200	0.161000	0.775100
C941	C94	0.731900	0.280800	0.800800
H421	H42	0.756100	0.337800	0.802400
C951	C95	0.624970	0.010900	0.802600
C961	C96	0.595380	0.238500	0.833810
Cd71	Cd7	0.220960	0.720370	0.518620
Cd81	Cd8	0.994250	0.239290	0.377610
O491	O49	0.220340	0.561600	0.462140
O501	O50	0.175320	0.714100	0.450610
O511	O51	0.068290	0.742900	0.308430
O521	O52	0.040930	0.580100	0.283860
O531	O53	0.077790	0.213000	0.378940
O541	O54	0.056440	0.247800	0.307970
O551	O55	0.142480	0.892500	0.305180
H431	H43	0.124100	0.834500	0.303700
O561	O56	0.077540	0.006800	0.314220
O571	O57	0.958920	0.902900	0.283860
O581	O58	0.927330	0.737900	0.300980
O591	O59	0.775490	0.749700	0.412600
O601	O60	0.759630	0.918500	0.439950
O611	O61	0.855810	0.588600	0.290860
H441	H44	0.873900	0.647200	0.291000
O621	O62	0.918430	0.477600	0.314000
O631	O63	0.908760	0.265200	0.376450
O641	O64	0.940880	0.236800	0.308800
C971	C97	0.190080	0.616900	0.438880
C981	C98	0.168120	0.564100	0.396430
C991	C99	0.133140	0.624100	0.371200
H451	H45	0.124100	0.697600	0.379600
C1001	C100	0.111560	0.574000	0.333280
C1011	C101	0.125550	0.464200	0.320750
H461	H46	0.110400	0.430200	0.295800
C1021	C102	0.161800	0.404400	0.344980
C1031	C103	0.183510	0.456000	0.383210
H471	H47	0.208100	0.417800	0.399600
C1041	C104	0.071450	0.635700	0.306790
C1051	C105	0.177930	0.287100	0.331670
C1061	C106	0.142800	0.197900	0.325450
C1071	C107	0.159380	0.089000	0.314070
C1081	C108	0.210630	0.068600	0.307330
H481	H48	0.221400	0.996500	0.298700
C1091	C109	0.245140	0.154400	0.313410
H491	H49	0.279200	0.140400	0.309100
C1101	C110	0.228860	0.261500	0.326050
H501	H50	0.252500	0.318400	0.331000
C1111	C111	0.088350	0.220600	0.336920
C1121	C112	0.122200	0.993600	0.311120
C1131	C113	0.924640	0.847000	0.301110
C1141	C114	0.880500	0.906400	0.322350
C1151	C115	0.850920	0.851300	0.354630
H511	H51	0.857500	0.776100	0.362400
C1161	C116	0.811360	0.909700	0.375270
C1171	C117	0.801130	0.022600	0.362740
H521	H52	0.775000	0.061500	0.376800
C1181	C118	0.829730	0.078000	0.329400
C1191	C119	0.869730	0.017800	0.310300
H531	H53	0.889800	0.053700	0.288800
C1201	C120	0.780310	0.854700	0.411140
C1211	C121	0.816760	0.195200	0.314410
C1221	C122	0.852700	0.284200	0.314490
C1231	C123	0.838660	0.392900	0.299760
C1241	C124	0.790180	0.411900	0.283970
H541	H54	0.781500	0.483100	0.272600
C1251	C125	0.754450	0.325500	0.284960
H551	H55	0.721800	0.339000	0.275100
C1261	C126	0.768100	0.219200	0.300800
H561	H56	0.743900	0.162200	0.302400
C1271	C127	0.875030	0.489100	0.302600
C1281	C128	0.904620	0.261500	0.333810
Cd91	Cd9	0.500000	0.760260	0.750000
K11	K1	0.500000	0.109800	0.750000
K21	K2	0.500000	0.406060	0.750000
Cd101	Cd10	0.000000	0.739740	0.250000
K31	K3	0.000000	0.390200	0.250000
K41	K4	0.000000	0.093940	0.250000
Cd111	Cd11	0.279040	0.220370	0.518620
Cd121	Cd12	0.505750	0.739290	0.377610
O651	O65	0.279660	0.061600	0.462140
O661	O66	0.324680	0.214100	0.450610
O671	O67	0.431710	0.242900	0.308430
O681	O68	0.459070	0.080100	0.283860
O691	O69	0.422210	0.713000	0.378940
O701	O70	0.443560	0.747800	0.307970
O711	O71	0.357520	0.392500	0.305180
H571	H57	0.375900	0.334500	0.303700
O721	O72	0.422460	0.506800	0.314220
O731	O73	0.541080	0.402900	0.283860
O741	O74	0.572670	0.237900	0.300980
O751	O75	0.724510	0.249700	0.412600
O761	O76	0.740370	0.418500	0.439950
O771	O77	0.644190	0.088600	0.290860
H581	H58	0.626100	0.147200	0.291000
O781	O78	0.581570	0.977600	0.314000
O791	O79	0.591240	0.765200	0.376450
O801	O80	0.559120	0.736800	0.308800
C1291	C129	0.309920	0.116900	0.438880
C1301	C130	0.331880	0.064100	0.396430
C1311	C131	0.366860	0.124100	0.371200
H591	H59	0.375900	0.197600	0.379600
C1321	C132	0.388440	0.074000	0.333280
C1331	C133	0.374450	0.964200	0.320750
H601	H60	0.389600	0.930200	0.295800
C1341	C134	0.338200	0.904400	0.344980
C1351	C135	0.316490	0.956000	0.383210
H611	H61	0.291900	0.917800	0.399600
C1361	C136	0.428550	0.135700	0.306790
C1371	C137	0.322070	0.787100	0.331670
C1381	C138	0.357200	0.697900	0.325450
C1391	C139	0.340620	0.589000	0.314070
C1401	C140	0.289370	0.568600	0.307330
H621	H62	0.278600	0.496500	0.298700
C1411	C141	0.254860	0.654400	0.313410
H631	H63	0.220800	0.640400	0.309100
C1421	C142	0.271140	0.761500	0.326050
H641	H64	0.247500	0.818400	0.331000
C1431	C143	0.411650	0.720600	0.336920
C1441	C144	0.377800	0.493600	0.311120
C1451	C145	0.575360	0.347000	0.301110
C1461	C146	0.619500	0.406400	0.322350
C1471	C147	0.649080	0.351300	0.354630
H651	H65	0.642500	0.276100	0.362400
C1481	C148	0.688640	0.409700	0.375270
C1491	C149	0.698870	0.522600	0.362740
H661	H66	0.725000	0.561500	0.376800
C1501	C150	0.670270	0.578000	0.329400
C1511	C151	0.630270	0.517800	0.310300
H671	H67	0.610200	0.553700	0.288800
C1521	C152	0.719690	0.354700	0.411140
C1531	C153	0.683240	0.695200	0.314410
C1541	C154	0.647300	0.784200	0.314490
C1551	C155	0.661340	0.892900	0.299760
C1561	C156	0.709820	0.911900	0.283970
H681	H68	0.718500	0.983100	0.272600
C1571	C157	0.745550	0.825500	0.284960
H691	H69	0.778200	0.839000	0.275100
C1581	C158	0.731900	0.719200	0.300800
H701	H70	0.756100	0.662200	0.302400
C1591	C159	0.624970	0.989100	0.302600
C1601	C160	0.595380	0.761500	0.333810
Cd131	Cd13	0.220960	0.279630	0.018620
Cd141	Cd14	0.994250	0.760710	0.877610
O811	O81	0.220340	0.438400	0.962140
O821	O82	0.175320	0.285900	0.950610
O831	O83	0.068290	0.257100	0.808430
O841	O84	0.040930	0.419900	0.783860
O851	O85	0.077790	0.787000	0.878940
O861	O86	0.056440	0.752200	0.807970
O871	O87	0.142480	0.107500	0.805180
H711	H71	0.124100	0.165500	0.803700
O881	O88	0.077540	0.993200	0.814220
O891	O89	0.958920	0.097100	0.783860
O901	O90	0.927330	0.262100	0.800980
O911	O91	0.775490	0.250300	0.912600
O921	O92	0.759630	0.081500	0.939950
O931	O93	0.855810	0.411400	0.790860
H721	H72	0.873900	0.352800	0.791000
O941	O94	0.918430	0.522400	0.814000
O951	O95	0.908760	0.734800	0.876450
O961	O96	0.940880	0.763200	0.808800
C1611	C161	0.190080	0.383100	0.938880
C1621	C162	0.168120	0.435900	0.896430
C1631	C163	0.133140	0.375900	0.871200
H731	H73	0.124100	0.302400	0.879600
C1641	C164	0.111560	0.426000	0.833280
C1651	C165	0.125550	0.535800	0.820750
H741	H74	0.110400	0.569800	0.795800
C1661	C166	0.161800	0.595600	0.844980
C1671	C167	0.183510	0.544000	0.883210
H751	H75	0.208100	0.582200	0.899600
C1681	C168	0.071450	0.364300	0.806790
C1691	C169	0.177930	0.712900	0.831670
C1701	C170	0.142800	0.802100	0.825450
C1711	C171	0.159380	0.911000	0.814070
C1721	C172	0.210630	0.931400	0.807330
H761	H76	0.221400	0.003500	0.798700
C1731	C173	0.245140	0.845600	0.813410
H771	H77	0.279200	0.859600	0.809100
C1741	C174	0.228860	0.738500	0.826050
H781	H78	0.252500	0.681600	0.831000
C1751	C175	0.088350	0.779400	0.836920
C1761	C176	0.122200	0.006400	0.811120
C1771	C177	0.924640	0.153000	0.801110
C1781	C178	0.880500	0.093600	0.822350
C1791	C179	0.850920	0.148700	0.854630
H791	H79	0.857500	0.223900	0.862400
C1801	C180	0.811360	0.090300	0.875270
C1811	C181	0.801130	0.977400	0.862740
H801	H80	0.775000	0.938500	0.876800
C1821	C182	0.829730	0.922000	0.829400
C1831	C183	0.869730	0.982200	0.810300
H811	H81	0.889800	0.946300	0.788800
C1841	C184	0.780310	0.145300	0.911140
C1851	C185	0.816760	0.804800	0.814410
C1861	C186	0.852700	0.715800	0.814490
C1871	C187	0.838660	0.607100	0.799760
C1881	C188	0.790180	0.588100	0.783970
H821	H82	0.781500	0.516900	0.772600
C1891	C189	0.754450	0.674500	0.784960
H831	H83	0.721800	0.661000	0.775100
C1901	C190	0.768100	0.780800	0.800800
H841	H84	0.743900	0.837800	0.802400
C1911	C191	0.875030	0.510900	0.802600
C1921	C192	0.904620	0.738500	0.833810
Cd151	Cd15	0.720960	0.220370	0.981380
Cd161	Cd16	0.494250	0.739290	0.122390
O971	O97	0.720340	0.061600	0.037860
O981	O98	0.675320	0.214100	0.049390
O991	O99	0.568290	0.242900	0.191570
O1001	O100	0.540930	0.080100	0.216140
O1011	O101	0.577790	0.713000	0.121060
O1021	O102	0.556440	0.747800	0.192030
O1031	O103	0.642480	0.392500	0.194820
H851	H85	0.624100	0.334500	0.196300
O1041	O104	0.577540	0.506800	0.185780
O1051	O105	0.458920	0.402900	0.216140
O1061	O106	0.427330	0.237900	0.199020
O1071	O107	0.275490	0.249700	0.087400
O1081	O108	0.259630	0.418500	0.060050
O1091	O109	0.355810	0.088600	0.209140
H861	H86	0.373900	0.147200	0.209000
O1101	O110	0.418430	0.977600	0.186000
O1111	O111	0.408760	0.765200	0.123550
O1121	O112	0.440880	0.736800	0.191200
C1931	C193	0.690080	0.116900	0.061120
C1941	C194	0.668120	0.064100	0.103570
C1951	C195	0.633140	0.124100	0.128800
H871	H87	0.624100	0.197600	0.120400
C1961	C196	0.611560	0.074000	0.166720
C1971	C197	0.625550	0.964200	0.179250
H881	H88	0.610400	0.930200	0.204200
C1981	C198	0.661800	0.904400	0.155020
C1991	C199	0.683510	0.956000	0.116790
H891	H89	0.708100	0.917800	0.100400
C2001	C200	0.571450	0.135700	0.193210
C2011	C201	0.677930	0.787100	0.168330
C2021	C202	0.642800	0.697900	0.174550
C2031	C203	0.659380	0.589000	0.185930
C2041	C204	0.710630	0.568600	0.192670
H901	H90	0.721400	0.496500	0.201300
C2051	C205	0.745140	0.654400	0.186590
H911	H91	0.779200	0.640400	0.190900
C2061	C206	0.728860	0.761500	0.173950
H921	H92	0.752500	0.818400	0.169000
C2071	C207	0.588350	0.720600	0.163080
C2081	C208	0.622200	0.493600	0.188880
C2091	C209	0.424640	0.347000	0.198890
C2101	C210	0.380500	0.406400	0.177650
C2111	C211	0.350920	0.351300	0.145370
H931	H93	0.357500	0.276100	0.137600
C2121	C212	0.311360	0.409700	0.124730
C2131	C213	0.301130	0.522600	0.137260
H941	H94	0.275000	0.561500	0.123200
C2141	C214	0.329730	0.578000	0.170600
C2151	C215	0.369730	0.517800	0.189700
H951	H95	0.389800	0.553700	0.211200
C2161	C216	0.280310	0.354700	0.088860
C2171	C217	0.316760	0.695200	0.185590
C2181	C218	0.352700	0.784200	0.185510
C2191	C219	0.338660	0.892900	0.200240
C2201	C220	0.290180	0.911900	0.216030
H961	H96	0.281500	0.983100	0.227400
C2211	C221	0.254450	0.825500	0.215040
H971	H97	0.221800	0.839000	0.224900
C2221	C222	0.268100	0.719200	0.199200
H981	H98	0.243900	0.662200	0.197600
C2231	C223	0.375030	0.989100	0.197400
C2241	C224	0.404620	0.761500	0.166190
Cd171	Cd17	0.779040	0.279630	0.481380
Cd181	Cd18	0.005750	0.760710	0.622390
O1131	O113	0.779660	0.438400	0.537860
O1141	O114	0.824680	0.285900	0.549390
O1151	O115	0.931710	0.257100	0.691570
O1161	O116	0.959070	0.419900	0.716140
O1171	O117	0.922210	0.787000	0.621060
O1181	O118	0.943560	0.752200	0.692030
O1191	O119	0.857520	0.107500	0.694820
H991	H99	0.875900	0.165500	0.696300
O1201	O120	0.922460	0.993200	0.685780
O1211	O121	0.041080	0.097100	0.716140
O1221	O122	0.072670	0.262100	0.699020
O1231	O123	0.224510	0.250300	0.587400
O1241	O124	0.240370	0.081500	0.560050
O1251	O125	0.144190	0.411400	0.709140
H1001	H100	0.126100	0.352800	0.709000
O1261	O126	0.081570	0.522400	0.686000
O1271	O127	0.091240	0.734800	0.623550
O1281	O128	0.059120	0.763200	0.691200
C2251	C225	0.809920	0.383100	0.561120
C2261	C226	0.831880	0.435900	0.603570
C2271	C227	0.866860	0.375900	0.628800
H1011	H101	0.875900	0.302400	0.620400
C2281	C228	0.888440	0.426000	0.666720
C2291	C229	0.874450	0.535800	0.679250
H1021	H102	0.889600	0.569800	0.704200
C2301	C230	0.838200	0.595600	0.655020
C2311	C231	0.816490	0.544000	0.616790
H1031	H103	0.791900	0.582200	0.600400
C2321	C232	0.928550	0.364300	0.693210
C2331	C233	0.822070	0.712900	0.668330
C2341	C234	0.857200	0.802100	0.674550
C2351	C235	0.840620	0.911000	0.685930
C2361	C236	0.789370	0.931400	0.692670
H1041	H104	0.778600	0.003500	0.701300
C2371	C237	0.754860	0.845600	0.686590
H1051	H105	0.720800	0.859600	0.690900
C2381	C238	0.771140	0.738500	0.673950
H1061	H106	0.747500	0.681600	0.669000
C2391	C239	0.911650	0.779400	0.663080
C2401	C240	0.877800	0.006400	0.688880
C2411	C241	0.075360	0.153000	0.698890
C2421	C242	0.119500	0.093600	0.677650
C2431	C243	0.149080	0.148700	0.645370
H1071	H107	0.142500	0.223900	0.637600
C2441	C244	0.188640	0.090300	0.624730
C2451	C245	0.198870	0.977400	0.637260
H1081	H108	0.225000	0.938500	0.623200
C2461	C246	0.170270	0.922000	0.670600
C2471	C247	0.130270	0.982200	0.689700
H1091	H109	0.110200	0.946300	0.711200
C2481	C248	0.219690	0.145300	0.588860
C2491	C249	0.183240	0.804800	0.685590
C2501	C250	0.147300	0.715800	0.685510
C2511	C251	0.161340	0.607100	0.700240
C2521	C252	0.209820	0.588100	0.716030
H1101	H110	0.218500	0.516900	0.727400
C2531	C253	0.245550	0.674500	0.715040
H1111	H111	0.278200	0.661000	0.724900
C2541	C254	0.231900	0.780800	0.699200
H1121	H112	0.256100	0.837800	0.697600
C2551	C255	0.124970	0.510900	0.697400
C2561	C256	0.095380	0.738500	0.666190
Cd191	Cd19	0.500000	0.239740	0.250000
K51	K5	0.500000	0.890200	0.250000
K61	K6	0.500000	0.593940	0.250000
Cd201	Cd20	0.000000	0.260260	0.750000
K71	K7	0.000000	0.609800	0.750000
K81	K8	0.000000	0.906060	0.750000
