data_ZARFOQ_clean_PM
_symmetry_space_group_name_H-M	'P1'
_cell_length_a	14.681400
_cell_length_b	24.288700
_cell_length_c	9.960900
_cell_angle_alpha	90.000000
_cell_angle_beta	98.392000
_cell_angle_gamma	90.000000
_symmetry_Int_Tables_number 1

loop_
_symmetry_equiv_pos_as_xyz
'x,y,z'

loop_
_atom_site_label
_atom_site_type_symbol
_atom_site_fract_x
_atom_site_fract_y
_atom_site_fract_z
Zn11	Zn1	0.427100	0.124490	0.125050
Zn21	Zn2	0.199400	0.185910	0.562400
C11	C1	0.059000	0.049480	0.656700
C21	C2	0.983300	0.049320	0.726300
H11	H1	0.957800	0.082400	0.749200
C31	C3	0.101400	0.102770	0.621500
O11	O1	0.162600	0.102190	0.546700
O21	O2	0.077200	0.147150	0.669600
O31	O3	0.856700	0.050200	0.929100
N11	N1	0.558200	0.150480	0.158200
N21	N2	0.620000	0.140390	0.067800
N31	N3	0.699100	0.166500	0.265200
C41	C4	0.702800	0.150030	0.136300
C51	C5	0.608500	0.165770	0.271600
H21	H2	0.583700	0.175200	0.349200
C61	C6	0.366900	0.221060	0.274000
H31	H3	0.396900	0.245100	0.222400
N41	N4	0.363800	0.166170	0.255200
N51	N5	0.288600	0.189560	0.423800
C71	C7	0.315000	0.148450	0.351000
N61	N6	0.323100	0.236960	0.372800
N71	N7	0.432500	0.045150	0.161700
N81	N8	0.782800	0.144300	0.081100
H41	H4	0.780700	0.134000	0.998100
H51	H5	0.835100	0.151100	0.129600
N91	N9	0.302100	0.095500	0.378000
H61	H6	0.275200	0.086400	0.446000
H71	H7	0.320600	0.070300	0.327500
C81	C8	0.481900	0.026200	0.286100
N101	N10	0.481900	0.973800	0.286100
Zn31	Zn3	0.927100	0.624490	0.125050
Zn41	Zn4	0.699400	0.685910	0.562400
C91	C9	0.559000	0.549480	0.656700
C101	C10	0.483300	0.549320	0.726300
H81	H8	0.457800	0.582400	0.749200
C111	C11	0.601400	0.602770	0.621500
O41	O4	0.662600	0.602190	0.546700
O51	O5	0.577200	0.647150	0.669600
O61	O6	0.356700	0.550200	0.929100
N111	N11	0.058200	0.650480	0.158200
N121	N12	0.120000	0.640390	0.067800
N131	N13	0.199100	0.666500	0.265200
C121	C12	0.202800	0.650030	0.136300
C131	C13	0.108500	0.665770	0.271600
H91	H9	0.083700	0.675200	0.349200
C141	C14	0.866900	0.721060	0.274000
H101	H10	0.896900	0.745100	0.222400
N141	N14	0.863800	0.666170	0.255200
N151	N15	0.788600	0.689560	0.423800
C151	C15	0.815000	0.648450	0.351000
N161	N16	0.823100	0.736960	0.372800
N171	N17	0.932500	0.545150	0.161700
N181	N18	0.282800	0.644300	0.081100
H111	H11	0.280700	0.634000	0.998100
H121	H12	0.335100	0.651100	0.129600
N191	N19	0.802100	0.595500	0.378000
H131	H13	0.775200	0.586400	0.446000
H141	H14	0.820600	0.570300	0.327500
C161	C16	0.981900	0.526200	0.286100
N201	N20	0.981900	0.473800	0.286100
Zn51	Zn5	0.572900	0.124490	0.874950
Zn61	Zn6	0.800600	0.185910	0.437600
C171	C17	0.941000	0.049480	0.343300
C181	C18	0.016700	0.049320	0.273700
H151	H15	0.042200	0.082400	0.250800
C191	C19	0.898600	0.102770	0.378500
O71	O7	0.837400	0.102190	0.453300
O81	O8	0.922800	0.147150	0.330400
O91	O9	0.143300	0.050200	0.070900
N211	N21	0.441800	0.150480	0.841800
N221	N22	0.380000	0.140390	0.932200
N231	N23	0.300900	0.166500	0.734800
C201	C20	0.297200	0.150030	0.863700
C211	C21	0.391500	0.165770	0.728400
H161	H16	0.416300	0.175200	0.650800
C221	C22	0.633100	0.221060	0.726000
H171	H17	0.603100	0.245100	0.777600
N241	N24	0.636200	0.166170	0.744800
N251	N25	0.711400	0.189560	0.576200
C231	C23	0.685000	0.148450	0.649000
N261	N26	0.676900	0.236960	0.627200
N271	N27	0.567500	0.045150	0.838300
N281	N28	0.217200	0.144300	0.918900
H181	H18	0.219300	0.134000	0.001900
H191	H19	0.164900	0.151100	0.870400
N291	N29	0.697900	0.095500	0.622000
H201	H20	0.724800	0.086400	0.554000
H211	H21	0.679400	0.070300	0.672500
C241	C24	0.518100	0.026200	0.713900
N301	N30	0.518100	0.973800	0.713900
Zn71	Zn7	0.072900	0.624490	0.874950
Zn81	Zn8	0.300600	0.685910	0.437600
C251	C25	0.441000	0.549480	0.343300
C261	C26	0.516700	0.549320	0.273700
H221	H22	0.542200	0.582400	0.250800
C271	C27	0.398600	0.602770	0.378500
O101	O10	0.337400	0.602190	0.453300
O111	O11	0.422800	0.647150	0.330400
O121	O12	0.643300	0.550200	0.070900
N311	N31	0.941800	0.650480	0.841800
N321	N32	0.880000	0.640390	0.932200
N331	N33	0.800900	0.666500	0.734800
C281	C28	0.797200	0.650030	0.863700
C291	C29	0.891500	0.665770	0.728400
H231	H23	0.916300	0.675200	0.650800
C301	C30	0.133100	0.721060	0.726000
H241	H24	0.103100	0.745100	0.777600
N341	N34	0.136200	0.666170	0.744800
N351	N35	0.211400	0.689560	0.576200
C311	C31	0.185000	0.648450	0.649000
N361	N36	0.176900	0.736960	0.627200
N371	N37	0.067500	0.545150	0.838300
N381	N38	0.717200	0.644300	0.918900
H251	H25	0.719300	0.634000	0.001900
H261	H26	0.664900	0.651100	0.870400
N391	N39	0.197900	0.595500	0.622000
H271	H27	0.224800	0.586400	0.554000
H281	H28	0.179400	0.570300	0.672500
C321	C32	0.018100	0.526200	0.713900
N401	N40	0.018100	0.473800	0.713900
Zn91	Zn9	0.572900	0.875510	0.874950
Zn101	Zn10	0.800600	0.814090	0.437600
C331	C33	0.941000	0.950520	0.343300
C341	C34	0.016700	0.950680	0.273700
H291	H29	0.042200	0.917600	0.250800
C351	C35	0.898600	0.897230	0.378500
O131	O13	0.837400	0.897810	0.453300
O141	O14	0.922800	0.852850	0.330400
O151	O15	0.143300	0.949800	0.070900
N411	N41	0.441800	0.849520	0.841800
N421	N42	0.380000	0.859610	0.932200
N431	N43	0.300900	0.833500	0.734800
C361	C36	0.297200	0.849970	0.863700
C371	C37	0.391500	0.834230	0.728400
H301	H30	0.416300	0.824800	0.650800
C381	C38	0.633100	0.778940	0.726000
H311	H31	0.603100	0.754900	0.777600
N441	N44	0.636200	0.833830	0.744800
N451	N45	0.711400	0.810440	0.576200
C391	C39	0.685000	0.851550	0.649000
N461	N46	0.676900	0.763040	0.627200
N471	N47	0.567500	0.954850	0.838300
N481	N48	0.217200	0.855700	0.918900
H321	H32	0.219300	0.866000	0.001900
H331	H33	0.164900	0.848900	0.870400
N491	N49	0.697900	0.904500	0.622000
H341	H34	0.724800	0.913600	0.554000
H351	H35	0.679400	0.929700	0.672500
Zn111	Zn11	0.072900	0.375510	0.874950
Zn121	Zn12	0.300600	0.314090	0.437600
C401	C40	0.441000	0.450520	0.343300
C411	C41	0.516700	0.450680	0.273700
H361	H36	0.542200	0.417600	0.250800
C421	C42	0.398600	0.397230	0.378500
O161	O16	0.337400	0.397810	0.453300
O171	O17	0.422800	0.352850	0.330400
O181	O18	0.643300	0.449800	0.070900
N501	N50	0.941800	0.349520	0.841800
N511	N51	0.880000	0.359610	0.932200
N521	N52	0.800900	0.333500	0.734800
C431	C43	0.797200	0.349970	0.863700
C441	C44	0.891500	0.334230	0.728400
H371	H37	0.916300	0.324800	0.650800
C451	C45	0.133100	0.278940	0.726000
H381	H38	0.103100	0.254900	0.777600
N531	N53	0.136200	0.333830	0.744800
N541	N54	0.211400	0.310440	0.576200
C461	C46	0.185000	0.351550	0.649000
N551	N55	0.176900	0.263040	0.627200
N561	N56	0.067500	0.454850	0.838300
N571	N57	0.717200	0.355700	0.918900
H391	H39	0.719300	0.366000	0.001900
H401	H40	0.664900	0.348900	0.870400
N581	N58	0.197900	0.404500	0.622000
H411	H41	0.224800	0.413600	0.554000
H421	H42	0.179400	0.429700	0.672500
Zn131	Zn13	0.427100	0.875510	0.125050
Zn141	Zn14	0.199400	0.814090	0.562400
C471	C47	0.059000	0.950520	0.656700
C481	C48	0.983300	0.950680	0.726300
H431	H43	0.957800	0.917600	0.749200
C491	C49	0.101400	0.897230	0.621500
O191	O19	0.162600	0.897810	0.546700
O201	O20	0.077200	0.852850	0.669600
O211	O21	0.856700	0.949800	0.929100
N591	N59	0.558200	0.849520	0.158200
N601	N60	0.620000	0.859610	0.067800
N611	N61	0.699100	0.833500	0.265200
C501	C50	0.702800	0.849970	0.136300
C511	C51	0.608500	0.834230	0.271600
H441	H44	0.583700	0.824800	0.349200
C521	C52	0.366900	0.778940	0.274000
H451	H45	0.396900	0.754900	0.222400
N621	N62	0.363800	0.833830	0.255200
N631	N63	0.288600	0.810440	0.423800
C531	C53	0.315000	0.851550	0.351000
N641	N64	0.323100	0.763040	0.372800
N651	N65	0.432500	0.954850	0.161700
N661	N66	0.782800	0.855700	0.081100
H461	H46	0.780700	0.866000	0.998100
H471	H47	0.835100	0.848900	0.129600
N671	N67	0.302100	0.904500	0.378000
H481	H48	0.275200	0.913600	0.446000
H491	H49	0.320600	0.929700	0.327500
Zn151	Zn15	0.927100	0.375510	0.125050
Zn161	Zn16	0.699400	0.314090	0.562400
C541	C54	0.559000	0.450520	0.656700
C551	C55	0.483300	0.450680	0.726300
H501	H50	0.457800	0.417600	0.749200
C561	C56	0.601400	0.397230	0.621500
O221	O22	0.662600	0.397810	0.546700
O231	O23	0.577200	0.352850	0.669600
O241	O24	0.356700	0.449800	0.929100
N681	N68	0.058200	0.349520	0.158200
N691	N69	0.120000	0.359610	0.067800
N701	N70	0.199100	0.333500	0.265200
C571	C57	0.202800	0.349970	0.136300
C581	C58	0.108500	0.334230	0.271600
H511	H51	0.083700	0.324800	0.349200
C591	C59	0.866900	0.278940	0.274000
H521	H52	0.896900	0.254900	0.222400
N711	N71	0.863800	0.333830	0.255200
N721	N72	0.788600	0.310440	0.423800
C601	C60	0.815000	0.351550	0.351000
N731	N73	0.823100	0.263040	0.372800
N741	N74	0.932500	0.454850	0.161700
N751	N75	0.282800	0.355700	0.081100
H531	H53	0.280700	0.366000	0.998100
H541	H54	0.335100	0.348900	0.129600
N761	N76	0.802100	0.404500	0.378000
H551	H55	0.775200	0.413600	0.446000
H561	H56	0.820600	0.429700	0.327500
S11	S1	0.850320	0.000000	0.851700
C611	C61	0.946200	0.000000	0.761400
C621	C62	0.096200	0.000000	0.621000
H571	H57	0.146100	0.000000	0.573200
O251	O25	0.770200	0.000000	0.751900
C631	C63	0.408600	0.000000	0.096800
N771	N77	0.355400	0.000000	0.968400
S21	S2	0.350320	0.500000	0.851700
C641	C64	0.446200	0.500000	0.761400
C651	C65	0.596200	0.500000	0.621000
H581	H58	0.646100	0.500000	0.573200
O261	O26	0.270200	0.500000	0.751900
C661	C66	0.908600	0.500000	0.096800
N781	N78	0.855400	0.500000	0.968400
S31	S3	0.149680	0.000000	0.148300
C671	C67	0.053800	0.000000	0.238600
C681	C68	0.903800	0.000000	0.379000
H591	H59	0.853900	0.000000	0.426800
O271	O27	0.229800	0.000000	0.248100
C691	C69	0.591400	0.000000	0.903200
N791	N79	0.644600	0.000000	0.031600
S41	S4	0.649680	0.500000	0.148300
C701	C70	0.553800	0.500000	0.238600
C711	C71	0.403800	0.500000	0.379000
H601	H60	0.353900	0.500000	0.426800
O281	O28	0.729800	0.500000	0.248100
C721	C72	0.091400	0.500000	0.903200
N801	N80	0.144600	0.500000	0.031600
