data_ZARLIP_clean_PM
_symmetry_space_group_name_H-M	'P1'
_cell_length_a	20.258700
_cell_length_b	21.501000
_cell_length_c	22.387900
_cell_angle_alpha	110.798000
_cell_angle_beta	108.642000
_cell_angle_gamma	106.054000
_symmetry_Int_Tables_number 1

loop_
_symmetry_equiv_pos_as_xyz
'x,y,z'

loop_
_atom_site_label
_atom_site_type_symbol
_atom_site_fract_x
_atom_site_fract_y
_atom_site_fract_z
Zn11	Zn1	0.376080	0.616750	0.432080
Zn21	Zn2	0.263100	0.678580	0.361530
Zn31	Zn3	0.556000	0.815330	0.432080
Zn41	Zn4	0.598430	0.682950	0.361530
Zn51	Zn5	0.401620	0.651620	0.303240
H11	H1	0.586600	0.909000	0.622200
H21	H2	0.796300	0.091600	0.992400
H31	H3	0.069900	0.044100	0.944000
H41	H4	0.650700	0.971900	0.748200
H51	H5	0.001200	0.846500	0.941200
H61	H6	0.160400	0.035000	0.128200
H71	H7	0.738700	0.901200	0.640200
H81	H8	0.787900	0.731200	0.555400
H91	H9	0.296200	0.280000	0.258800
H101	H10	0.833600	0.939300	0.754200
H111	H11	0.360800	0.407700	0.326800
H121	H12	0.086300	0.276500	0.233000
H131	H13	0.266300	0.806700	0.250400
H141	H14	0.881800	0.768700	0.669800
H151	H15	0.191800	0.393900	0.302800
H161	H16	0.049300	0.484900	0.251400
H171	H17	0.278000	0.425000	0.149400
H181	H18	0.236400	0.862100	0.179000
H191	H19	0.943000	0.370000	0.187600
H201	H20	0.051600	0.738700	0.229000
H211	H21	0.019400	0.793200	0.157400
H221	H22	0.222700	0.298200	0.079600
H231	H23	0.535600	0.713200	0.622200
H241	H24	0.696100	0.900800	0.992400
H251	H25	0.374100	0.899900	0.944000
H261	H26	0.597500	0.776300	0.748200
H271	H27	0.440000	0.094700	0.941200
H281	H28	0.467800	0.093200	0.128200
H291	H29	0.401500	0.739000	0.640200
H301	H30	0.267500	0.824200	0.555400
H311	H31	0.462600	0.978800	0.258800
H321	H32	0.420600	0.814900	0.754200
H331	H33	0.466000	0.919100	0.326800
H341	H34	0.646700	0.956500	0.233000
H351	H35	0.484100	0.443700	0.250400
H361	H36	0.288000	0.901100	0.669800
H371	H37	0.611000	0.908900	0.302800
H381	H38	0.702100	0.766500	0.251400
H391	H39	0.371400	0.724400	0.149400
H401	H40	0.442600	0.316900	0.179000
H411	H41	0.744600	0.817600	0.187600
H421	H42	0.677400	0.490300	0.229000
H431	H43	0.638000	0.364200	0.157400
H441	H44	0.356900	0.781400	0.079600
H451	H45	0.841100	0.091100	0.182200
C11	C1	0.363300	0.511940	0.288880
C21	C2	0.589170	0.881940	0.647760
C31	C3	0.789460	0.065390	0.018080
C41	C4	0.072210	0.016110	0.968660
C51	C5	0.972250	0.905240	0.856120
C61	C6	0.753250	0.811300	0.586240
C71	C7	0.121860	0.051870	0.042540
C81	C8	0.829390	0.103040	0.094100
C91	C9	0.626950	0.919290	0.722700
C101	C10	0.031540	0.898730	0.966880
C111	C11	0.168010	0.130690	0.082420
C121	C12	0.126390	0.010810	0.077980
C131	C13	0.887620	0.178610	0.132260
C141	C14	0.199870	0.526270	0.326640
C151	C15	0.326570	0.429060	0.245300
C161	C16	0.866870	0.856280	0.723760
C171	C17	0.767610	0.873910	0.646120
C181	C18	0.081690	0.934520	0.040760
C191	C19	0.026060	0.939930	0.930620
C201	C20	0.091760	0.894030	0.079640
C211	C21	0.938790	0.239490	0.164940
C221	C22	0.004270	0.311970	0.205200
C231	C23	0.205330	0.196030	0.118560
C241	C24	0.796460	0.773360	0.595940
C251	C25	0.292090	0.309090	0.235520
C261	C26	0.823820	0.896320	0.713820
C271	C27	0.330620	0.385320	0.275960
C281	C28	0.078210	0.319110	0.237960
C291	C29	0.131120	0.450740	0.284000
C301	C30	0.925380	0.881280	0.794500
C311	C31	0.247860	0.274860	0.161940
C321	C32	0.215740	0.803840	0.231300
C331	C33	0.162560	0.768360	0.246040
C341	C34	0.852620	0.795890	0.664280
C351	C35	0.125410	0.832010	0.159800
C361	C36	0.141180	0.389080	0.278600
C371	C37	0.056880	0.442580	0.248940
C381	C38	0.283310	0.395410	0.171960
C391	C39	0.197870	0.836570	0.188320
C401	C40	0.993740	0.374340	0.210440
C411	C41	0.106330	0.866130	0.115360
C421	C42	0.089190	0.763890	0.218580
C431	C43	0.069890	0.795790	0.175780
C441	C44	0.247850	0.320050	0.130780
C451	C45	0.691490	0.787290	0.513440
C461	C46	0.182670	0.732270	0.292740
C471	C47	0.425580	0.776940	0.288880
C481	C48	0.558590	0.765820	0.647760
C491	C49	0.728620	0.952690	0.018080
C501	C50	0.396450	0.952550	0.968660
C511	C51	0.383870	0.950880	0.856120
C521	C52	0.332990	0.774940	0.586240
C531	C53	0.420680	0.990670	0.042540
C541	C54	0.764710	0.991060	0.094100
C551	C55	0.595750	0.803410	0.722700
C561	C56	0.435340	0.068150	0.966880
C571	C57	0.414410	0.951730	0.082420
C581	C58	0.451590	0.067170	0.077980
C591	C59	0.744640	0.953650	0.132260
C601	C60	0.626770	0.800370	0.326640
C611	C61	0.418730	0.816240	0.245300
C621	C62	0.356890	0.867480	0.723760
C631	C63	0.378510	0.772210	0.646120
C641	C64	0.459070	0.106240	0.040760
C651	C65	0.404560	0.990690	0.930620
C661	C66	0.487880	0.185610	0.079640
C671	C67	0.726150	0.925450	0.164940
C681	C68	0.700930	0.893230	0.205200
C691	C69	0.413230	0.922530	0.118560
C701	C70	0.299480	0.822580	0.595940
C711	C71	0.443430	0.926430	0.235520
C721	C72	0.390000	0.817500	0.713820
C731	C73	0.445340	0.890640	0.275960
C741	C74	0.659750	0.918850	0.237960
C751	C75	0.652880	0.833260	0.284000
C761	C76	0.369120	0.913220	0.794500
C771	C77	0.414080	0.887080	0.161940
C781	C78	0.515560	0.427460	0.231300
C791	C79	0.583480	0.477680	0.246040
C801	C80	0.311660	0.868390	0.664280
C811	C81	0.534390	0.327790	0.159800
C821	C82	0.637420	0.889520	0.278600
C831	C83	0.692060	0.806360	0.248940
C841	C84	0.388650	0.776550	0.171960
C851	C85	0.490450	0.351750	0.188320
C861	C86	0.716700	0.836100	0.210440
C871	C87	0.509030	0.249230	0.115360
C881	C88	0.629390	0.454690	0.218580
C891	C89	0.605890	0.379990	0.175780
C901	C90	0.382930	0.810730	0.130780
C911	C91	0.321950	0.726150	0.513440
C921	C92	0.610070	0.560470	0.292740
C931	C93	0.669250	0.919250	0.838500
C941	C94	0.740330	0.990330	0.980660
C951	C95	0.555040	0.805040	0.610080
C961	C96	0.701390	0.951390	0.902780
C971	C97	0.815440	0.065440	0.130880
C981	C98	0.630300	0.880300	0.760600
C991	C99	0.514620	0.764620	0.529240
O11	O1	0.497660	0.696380	0.497360
O21	O2	0.364720	0.677940	0.378920
O31	O3	0.655700	0.825070	0.508780
O41	O4	0.262390	0.532970	0.366960
O51	O5	0.354900	0.546020	0.253000
O61	O6	0.680800	0.729500	0.461220
O71	O7	0.398790	0.542150	0.355760
O81	O8	0.247930	0.735970	0.313020
O91	O9	0.186230	0.576720	0.316700
O101	O10	0.132950	0.701650	0.306800
O111	O11	0.499700	0.800980	0.497360
O121	O12	0.514200	0.700980	0.378920
O131	O13	0.353080	0.683710	0.508780
O141	O14	0.604570	0.833990	0.366960
O151	O15	0.398100	0.706980	0.253000
O161	O16	0.280420	0.731720	0.461220
O171	O17	0.456970	0.813610	0.355760
O181	O18	0.565090	0.577050	0.313020
O191	O19	0.630470	0.739980	0.316700
O201	O20	0.673850	0.605150	0.306800
Zn61	Zn6	0.623920	0.383250	0.567920
Zn71	Zn7	0.736900	0.321420	0.638470
Zn81	Zn8	0.444000	0.184670	0.567920
Zn91	Zn9	0.401570	0.317050	0.638470
Zn101	Zn10	0.598380	0.348380	0.696760
H461	H46	0.413400	0.091000	0.377800
H471	H47	0.203700	0.908400	0.007600
H481	H48	0.930100	0.955900	0.056000
H491	H49	0.349300	0.028100	0.251800
H501	H50	0.998800	0.153500	0.058800
H511	H51	0.839600	0.965000	0.871800
H521	H52	0.261300	0.098800	0.359800
H531	H53	0.212100	0.268800	0.444600
H541	H54	0.703800	0.720000	0.741200
H551	H55	0.166400	0.060700	0.245800
H561	H56	0.639200	0.592300	0.673200
H571	H57	0.913700	0.723500	0.767000
H581	H58	0.733700	0.193300	0.749600
H591	H59	0.118200	0.231300	0.330200
H601	H60	0.808200	0.606100	0.697200
H611	H61	0.950700	0.515100	0.748600
H621	H62	0.722000	0.575000	0.850600
H631	H63	0.763600	0.137900	0.821000
H641	H64	0.057000	0.630000	0.812400
H651	H65	0.948400	0.261300	0.771000
H661	H66	0.980600	0.206800	0.842600
H671	H67	0.777300	0.701800	0.920400
H681	H68	0.464400	0.286800	0.377800
H691	H69	0.303900	0.099200	0.007600
H701	H70	0.625900	0.100100	0.056000
H711	H71	0.402500	0.223700	0.251800
H721	H72	0.560000	0.905300	0.058800
H731	H73	0.532200	0.906800	0.871800
H741	H74	0.598500	0.261000	0.359800
H751	H75	0.732500	0.175800	0.444600
H761	H76	0.537400	0.021200	0.741200
H771	H77	0.579400	0.185100	0.245800
H781	H78	0.534000	0.080900	0.673200
H791	H79	0.353300	0.043500	0.767000
H801	H80	0.515900	0.556300	0.749600
H811	H81	0.712000	0.098900	0.330200
H821	H82	0.389000	0.091100	0.697200
H831	H83	0.297900	0.233500	0.748600
H841	H84	0.628600	0.275600	0.850600
H851	H85	0.557400	0.683100	0.821000
H861	H86	0.255400	0.182400	0.812400
H871	H87	0.322600	0.509700	0.771000
H881	H88	0.362000	0.635800	0.842600
H891	H89	0.643100	0.218600	0.920400
H901	H90	0.158900	0.908900	0.817800
C1001	C100	0.636700	0.488060	0.711120
C1011	C101	0.410830	0.118060	0.352240
C1021	C102	0.210540	0.934610	0.981920
C1031	C103	0.927790	0.983890	0.031340
C1041	C104	0.027750	0.094760	0.143880
C1051	C105	0.246750	0.188700	0.413760
C1061	C106	0.878140	0.948130	0.957460
C1071	C107	0.170610	0.896960	0.905900
C1081	C108	0.373050	0.080710	0.277300
C1091	C109	0.968460	0.101270	0.033120
C1101	C110	0.831990	0.869310	0.917580
C1111	C111	0.873610	0.989190	0.922020
C1121	C112	0.112380	0.821390	0.867740
C1131	C113	0.800130	0.473730	0.673360
C1141	C114	0.673430	0.570940	0.754700
C1151	C115	0.133130	0.143720	0.276240
C1161	C116	0.232390	0.126090	0.353880
C1171	C117	0.918310	0.065480	0.959240
C1181	C118	0.973940	0.060070	0.069380
C1191	C119	0.908240	0.105970	0.920360
C1201	C120	0.061210	0.760510	0.835060
C1211	C121	0.995730	0.688030	0.794800
C1221	C122	0.794670	0.803970	0.881440
C1231	C123	0.203540	0.226640	0.404060
C1241	C124	0.707910	0.690910	0.764480
C1251	C125	0.176180	0.103680	0.286180
C1261	C126	0.669380	0.614680	0.724040
C1271	C127	0.921790	0.680890	0.762040
C1281	C128	0.868880	0.549260	0.716000
C1291	C129	0.074620	0.118720	0.205500
C1301	C130	0.752140	0.725140	0.838060
C1311	C131	0.784260	0.196160	0.768700
C1321	C132	0.837440	0.231640	0.753960
C1331	C133	0.147380	0.204110	0.335720
C1341	C134	0.874590	0.167990	0.840200
C1351	C135	0.858820	0.610920	0.721400
C1361	C136	0.943120	0.557420	0.751060
C1371	C137	0.716690	0.604590	0.828040
C1381	C138	0.802130	0.163430	0.811680
C1391	C139	0.006260	0.625660	0.789560
C1401	C140	0.893670	0.133870	0.884640
C1411	C141	0.910810	0.236110	0.781420
C1421	C142	0.930110	0.204210	0.824220
C1431	C143	0.752150	0.679950	0.869220
C1441	C144	0.308510	0.212710	0.486560
C1451	C145	0.817330	0.267730	0.707260
C1461	C146	0.574420	0.223060	0.711120
C1471	C147	0.441410	0.234180	0.352240
C1481	C148	0.271380	0.047310	0.981920
C1491	C149	0.603550	0.047450	0.031340
C1501	C150	0.616130	0.049120	0.143880
C1511	C151	0.667010	0.225060	0.413760
C1521	C152	0.579320	0.009330	0.957460
C1531	C153	0.235290	0.008940	0.905900
C1541	C154	0.404250	0.196590	0.277300
C1551	C155	0.564660	0.931850	0.033120
C1561	C156	0.585590	0.048270	0.917580
C1571	C157	0.548410	0.932830	0.922020
C1581	C158	0.255360	0.046350	0.867740
C1591	C159	0.373230	0.199630	0.673360
C1601	C160	0.581270	0.183760	0.754700
C1611	C161	0.643110	0.132520	0.276240
C1621	C162	0.621490	0.227790	0.353880
C1631	C163	0.540930	0.893760	0.959240
C1641	C164	0.595440	0.009310	0.069380
C1651	C165	0.512120	0.814390	0.920360
C1661	C166	0.273850	0.074550	0.835060
C1671	C167	0.299070	0.106770	0.794800
C1681	C168	0.586770	0.077470	0.881440
C1691	C169	0.700520	0.177420	0.404060
C1701	C170	0.556570	0.073570	0.764480
C1711	C171	0.610000	0.182500	0.286180
C1721	C172	0.554660	0.109360	0.724040
C1731	C173	0.340250	0.081150	0.762040
C1741	C174	0.347120	0.166740	0.716000
C1751	C175	0.630880	0.086780	0.205500
C1761	C176	0.585920	0.112920	0.838060
C1771	C177	0.484440	0.572540	0.768700
C1781	C178	0.416520	0.522320	0.753960
C1791	C179	0.688340	0.131610	0.335720
C1801	C180	0.465610	0.672210	0.840200
C1811	C181	0.362580	0.110480	0.721400
C1821	C182	0.307940	0.193640	0.751060
C1831	C183	0.611350	0.223450	0.828040
C1841	C184	0.509550	0.648250	0.811680
C1851	C185	0.283300	0.163900	0.789560
C1861	C186	0.490970	0.750770	0.884640
C1871	C187	0.370610	0.545310	0.781420
C1881	C188	0.394110	0.620010	0.824220
C1891	C189	0.617070	0.189270	0.869220
C1901	C190	0.678050	0.273850	0.486560
C1911	C191	0.389930	0.439530	0.707260
C1921	C192	0.330750	0.080750	0.161500
C1931	C193	0.259670	0.009670	0.019340
C1941	C194	0.444960	0.194960	0.389920
C1951	C195	0.298610	0.048610	0.097220
C1961	C196	0.184560	0.934560	0.869120
C1971	C197	0.369700	0.119700	0.239400
C1981	C198	0.485380	0.235380	0.470760
O211	O21	0.502340	0.303620	0.502640
O221	O22	0.635280	0.322060	0.621080
O231	O23	0.344300	0.174930	0.491220
O241	O24	0.737610	0.467030	0.633040
O251	O25	0.645100	0.453980	0.747000
O261	O26	0.319200	0.270500	0.538780
O271	O27	0.601210	0.457850	0.644240
O281	O28	0.752070	0.264030	0.686980
O291	O29	0.813770	0.423280	0.683300
O301	O30	0.867050	0.298350	0.693200
O311	O31	0.500300	0.199020	0.502640
O321	O32	0.485800	0.299020	0.621080
O331	O33	0.646920	0.316290	0.491220
O341	O34	0.395430	0.166010	0.633040
O351	O35	0.601900	0.293020	0.747000
O361	O36	0.719580	0.268280	0.538780
O371	O37	0.543030	0.186390	0.644240
O381	O38	0.434910	0.422950	0.686980
O391	O39	0.369530	0.260020	0.683300
O401	O40	0.326150	0.394850	0.693200
