data_ZARVIZ_clean_PM
_symmetry_space_group_name_H-M	'P1'
_cell_length_a	20.037600
_cell_length_b	20.874000
_cell_length_c	20.980700
_cell_angle_alpha	90.000000
_cell_angle_beta	90.000000
_cell_angle_gamma	90.000000
_symmetry_Int_Tables_number 1

loop_
_symmetry_equiv_pos_as_xyz
'x,y,z'

loop_
_atom_site_label
_atom_site_type_symbol
_atom_site_fract_x
_atom_site_fract_y
_atom_site_fract_z
Sb11	Sb1	0.787560	0.160310	0.872980
Sb21	Sb2	0.779970	0.047900	0.746130
Sb31	Sb3	0.706040	0.201700	0.726120
Sb41	Sb4	0.549340	0.978530	0.949140
Sb51	Sb5	0.471550	0.003300	0.797590
Sb61	Sb6	0.471250	0.128210	0.913040
Fe11	Fe1	0.627620	0.086090	0.833270
Fe21	Fe2	0.630660	0.190010	0.938370
Fe31	Fe3	0.692780	0.953610	0.856820
Fe41	Fe4	0.559020	0.114070	0.703590
Mn11	Mn1	0.704930	0.053190	0.978690
Mn21	Mn2	0.623830	0.968880	0.713980
Mn31	Mn3	0.553630	0.235220	0.805110
O11	O1	0.768600	0.141240	0.775870
O21	O2	0.486000	0.031350	0.891600
O31	O3	0.694300	0.130690	0.890940
O41	O4	0.695200	0.026270	0.791410
O51	O5	0.629100	0.153560	0.762290
O61	O6	0.626500	0.014120	0.899860
O71	O7	0.556800	0.047100	0.775690
O81	O8	0.562100	0.143830	0.881000
O91	O9	0.805600	0.116700	0.973400
O101	O10	0.891300	0.062100	0.015000
O111	O11	0.826400	0.072800	0.857900
O121	O12	0.752800	0.983200	0.926400
O131	O13	0.780100	0.920600	0.824200
O141	O14	0.890000	0.914100	0.844200
O151	O15	0.735500	0.966200	0.677200
O161	O16	0.748100	0.955100	0.572900
O171	O17	0.737500	0.092200	0.670500
O181	O18	0.607000	0.046800	0.656000
O191	O19	0.591700	0.165300	0.628700
O201	O20	0.651700	0.162100	0.539100
O211	O21	0.626300	0.285800	0.734100
O221	O22	0.640300	0.390500	0.755200
O231	O23	0.731400	0.253400	0.804400
O241	O24	0.616200	0.262800	0.879100
O251	O25	0.706200	0.246600	0.963800
O261	O26	0.753600	0.342700	0.949900
O271	O27	0.342000	0.378400	0.592500
O281	O28	0.401700	0.289600	0.597000
O291	O29	0.360700	0.409500	0.708900
O301	O30	0.489000	0.424850	0.659100
O311	O31	0.491000	0.434390	0.785300
O321	O32	0.506400	0.330400	0.798200
O331	O33	0.469500	0.083100	0.672000
O341	O34	0.361100	0.106300	0.670700
O351	O35	0.502400	0.183770	0.736600
O361	O36	0.427300	0.116900	0.826500
O371	O37	0.456200	0.230900	0.870900
O381	O38	0.370200	0.276100	0.821200
O391	O39	0.557600	0.217400	0.998900
O401	O40	0.518700	0.204900	0.096900
O411	O41	0.645900	0.129700	0.009900
O421	O42	0.528600	0.058400	0.001600
O431	O43	0.629500	0.983400	0.030000
O441	O44	0.618200	0.002500	0.135200
C11	C1	0.853500	0.074600	0.970800
C21	C2	0.857700	0.038100	0.908400
H11	H1	0.904800	0.031200	0.897600
C31	C3	0.823300	0.973700	0.915300
H21	H2	0.842300	0.951400	0.952200
C41	C4	0.834000	0.932600	0.856800
C51	C5	0.737200	0.987500	0.620000
C61	C6	0.720200	0.059100	0.613900
H31	H3	0.744900	0.077400	0.577900
C71	C7	0.645400	0.067000	0.602300
H41	H4	0.633000	0.040400	0.565600
C81	C8	0.628800	0.135700	0.586900
C91	C9	0.652500	0.332600	0.763900
C101	C10	0.702100	0.313900	0.816700
H51	H5	0.737200	0.346500	0.819300
C111	C11	0.664700	0.311400	0.879500
H61	H6	0.641900	0.352500	0.885500
C121	C12	0.710700	0.301300	0.934900
C131	C13	0.379500	0.339400	0.621100
C141	C14	0.398600	0.356100	0.690100
H71	H7	0.387200	0.319900	0.717700
C151	C15	0.472500	0.368200	0.694600
H81	H8	0.496400	0.331600	0.676400
C161	C16	0.492300	0.375900	0.765800
C171	C17	0.417000	0.118500	0.687600
C181	C18	0.431800	0.175700	0.728700
H91	H9	0.413700	0.214100	0.707900
C191	C19	0.398800	0.168200	0.793800
H101	H10	0.351100	0.159700	0.787700
C201	C20	0.406700	0.231200	0.832000
C211	C21	0.554000	0.188100	0.052000
C221	C22	0.598900	0.131200	0.059400
H111	H11	0.622800	0.135200	0.100000
C231	C23	0.557800	0.069500	0.060800
H121	H12	0.522700	0.073500	0.093100
C241	C24	0.604900	0.012900	0.079100
Sb71	Sb7	0.712440	0.839690	0.372980
Sb81	Sb8	0.720030	0.952100	0.246130
Sb91	Sb9	0.793960	0.798300	0.226120
Sb101	Sb10	0.950660	0.021470	0.449140
Sb111	Sb11	0.028450	0.996700	0.297590
Sb121	Sb12	0.028750	0.871790	0.413040
Fe51	Fe5	0.872380	0.913910	0.333270
Fe61	Fe6	0.869340	0.809990	0.438370
Fe71	Fe7	0.807220	0.046390	0.356820
Fe81	Fe8	0.940980	0.885930	0.203590
Mn41	Mn4	0.795070	0.946810	0.478690
Mn51	Mn5	0.876170	0.031120	0.213980
Mn61	Mn6	0.946370	0.764780	0.305110
O451	O45	0.731400	0.858760	0.275870
O461	O46	0.014000	0.968650	0.391600
O471	O47	0.805700	0.869310	0.390940
O481	O48	0.804800	0.973730	0.291410
O491	O49	0.870900	0.846440	0.262290
O501	O50	0.873500	0.985880	0.399860
O511	O51	0.943200	0.952900	0.275690
O521	O52	0.937900	0.856170	0.381000
O531	O53	0.694400	0.883300	0.473400
O541	O54	0.608700	0.937900	0.515000
O551	O55	0.673600	0.927200	0.357900
O561	O56	0.747200	0.016800	0.426400
O571	O57	0.719900	0.079400	0.324200
O581	O58	0.610000	0.085900	0.344200
O591	O59	0.764500	0.033800	0.177200
O601	O60	0.751900	0.044900	0.072900
O611	O61	0.762500	0.907800	0.170500
O621	O62	0.893000	0.953200	0.156000
O631	O63	0.908300	0.834700	0.128700
O641	O64	0.848300	0.837900	0.039100
O651	O65	0.873700	0.714200	0.234100
O661	O66	0.859700	0.609500	0.255200
O671	O67	0.768600	0.746600	0.304400
O681	O68	0.883800	0.737200	0.379100
O691	O69	0.793800	0.753400	0.463800
O701	O70	0.746400	0.657300	0.449900
O711	O71	0.158000	0.621600	0.092500
O721	O72	0.098300	0.710400	0.097000
O731	O73	0.139300	0.590500	0.208900
O741	O74	0.011000	0.575150	0.159100
O751	O75	0.009000	0.565610	0.285300
O761	O76	0.993600	0.669600	0.298200
O771	O77	0.030500	0.916900	0.172000
O781	O78	0.138900	0.893700	0.170700
O791	O79	0.997600	0.816230	0.236600
O801	O80	0.072700	0.883100	0.326500
O811	O81	0.043800	0.769100	0.370900
O821	O82	0.129800	0.723900	0.321200
O831	O83	0.942400	0.782600	0.498900
O841	O84	0.981300	0.795100	0.596900
O851	O85	0.854100	0.870300	0.509900
O861	O86	0.971400	0.941600	0.501600
O871	O87	0.870500	0.016600	0.530000
O881	O88	0.881800	0.997500	0.635200
C251	C25	0.646500	0.925400	0.470800
C261	C26	0.642300	0.961900	0.408400
H131	H13	0.595200	0.968800	0.397600
C271	C27	0.676700	0.026300	0.415300
H141	H14	0.657700	0.048600	0.452200
C281	C28	0.666000	0.067400	0.356800
C291	C29	0.762800	0.012500	0.120000
C301	C30	0.779800	0.940900	0.113900
H151	H15	0.755100	0.922600	0.077900
C311	C31	0.854600	0.933000	0.102300
H161	H16	0.867000	0.959600	0.065600
C321	C32	0.871200	0.864300	0.086900
C331	C33	0.847500	0.667400	0.263900
C341	C34	0.797900	0.686100	0.316700
H171	H17	0.762800	0.653500	0.319300
C351	C35	0.835300	0.688600	0.379500
H181	H18	0.858100	0.647500	0.385500
C361	C36	0.789300	0.698700	0.434900
C371	C37	0.120500	0.660600	0.121100
C381	C38	0.101400	0.643900	0.190100
H191	H19	0.112800	0.680100	0.217700
C391	C39	0.027500	0.631800	0.194600
H201	H20	0.003600	0.668400	0.176400
C401	C40	0.007700	0.624100	0.265800
C411	C41	0.083000	0.881500	0.187600
C421	C42	0.068200	0.824300	0.228700
H211	H21	0.086300	0.785900	0.207900
C431	C43	0.101200	0.831800	0.293800
H221	H22	0.148900	0.840300	0.287700
C441	C44	0.093300	0.768800	0.332000
C451	C45	0.946000	0.811900	0.552000
C461	C46	0.901100	0.868800	0.559400
H231	H23	0.877200	0.864800	0.600000
C471	C47	0.942200	0.930500	0.560800
H241	H24	0.977300	0.926500	0.593100
C481	C48	0.895100	0.987100	0.579100
Sb131	Sb13	0.212440	0.660310	0.627020
Sb141	Sb14	0.220030	0.547900	0.753870
Sb151	Sb15	0.293960	0.701700	0.773880
Sb161	Sb16	0.450660	0.478530	0.550860
Sb171	Sb17	0.528450	0.503300	0.702410
Sb181	Sb18	0.528750	0.628210	0.586960
Fe91	Fe9	0.372380	0.586090	0.666730
Fe101	Fe10	0.369340	0.690010	0.561630
Fe111	Fe11	0.307220	0.453610	0.643180
Fe121	Fe12	0.440980	0.614070	0.796410
Mn71	Mn7	0.295070	0.553190	0.521310
Mn81	Mn8	0.376170	0.468880	0.786020
Mn91	Mn9	0.446370	0.735220	0.694890
O891	O89	0.231400	0.641240	0.724130
O901	O90	0.514000	0.531350	0.608400
O911	O91	0.305700	0.630690	0.609060
O921	O92	0.304800	0.526270	0.708590
O931	O93	0.370900	0.653560	0.737710
O941	O94	0.373500	0.514120	0.600140
O951	O95	0.443200	0.547100	0.724310
O961	O96	0.437900	0.643830	0.619000
O971	O97	0.194400	0.616700	0.526600
O981	O98	0.108700	0.562100	0.485000
O991	O99	0.173600	0.572800	0.642100
O1001	O100	0.247200	0.483200	0.573600
O1011	O101	0.219900	0.420600	0.675800
O1021	O102	0.110000	0.414100	0.655800
O1031	O103	0.264500	0.466200	0.822800
O1041	O104	0.251900	0.455100	0.927100
O1051	O105	0.262500	0.592200	0.829500
O1061	O106	0.393000	0.546800	0.844000
O1071	O107	0.408300	0.665300	0.871300
O1081	O108	0.348300	0.662100	0.960900
O1091	O109	0.373700	0.785800	0.765900
O1101	O110	0.359700	0.890500	0.744800
O1111	O111	0.268600	0.753400	0.695600
O1121	O112	0.383800	0.762800	0.620900
O1131	O113	0.293800	0.746600	0.536200
O1141	O114	0.246400	0.842700	0.550100
O1151	O115	0.658000	0.878400	0.907500
O1161	O116	0.598300	0.789600	0.903000
O1171	O117	0.639300	0.909500	0.791100
O1181	O118	0.511000	0.924850	0.840900
O1191	O119	0.509000	0.934390	0.714700
O1201	O120	0.493600	0.830400	0.701800
O1211	O121	0.530500	0.583100	0.828000
O1221	O122	0.638900	0.606300	0.829300
O1231	O123	0.497600	0.683770	0.763400
O1241	O124	0.572700	0.616900	0.673500
O1251	O125	0.543800	0.730900	0.629100
O1261	O126	0.629800	0.776100	0.678800
O1271	O127	0.442400	0.717400	0.501100
O1281	O128	0.481300	0.704900	0.403100
O1291	O129	0.354100	0.629700	0.490100
O1301	O130	0.471400	0.558400	0.498400
O1311	O131	0.370500	0.483400	0.470000
O1321	O132	0.381800	0.502500	0.364800
C491	C49	0.146500	0.574600	0.529200
C501	C50	0.142300	0.538100	0.591600
H251	H25	0.095200	0.531200	0.602400
C511	C51	0.176700	0.473700	0.584700
H261	H26	0.157700	0.451400	0.547800
C521	C52	0.166000	0.432600	0.643200
C531	C53	0.262800	0.487500	0.880000
C541	C54	0.279800	0.559100	0.886100
H271	H27	0.255100	0.577400	0.922100
C551	C55	0.354600	0.567000	0.897700
H281	H28	0.367000	0.540400	0.934400
C561	C56	0.371200	0.635700	0.913100
C571	C57	0.347500	0.832600	0.736100
C581	C58	0.297900	0.813900	0.683300
H291	H29	0.262800	0.846500	0.680700
C591	C59	0.335300	0.811400	0.620500
H301	H30	0.358100	0.852500	0.614500
C601	C60	0.289300	0.801300	0.565100
C611	C61	0.620500	0.839400	0.878900
C621	C62	0.601400	0.856100	0.809900
H311	H31	0.612800	0.819900	0.782300
C631	C63	0.527500	0.868200	0.805400
H321	H32	0.503600	0.831600	0.823600
C641	C64	0.507700	0.875900	0.734200
C651	C65	0.583000	0.618500	0.812400
C661	C66	0.568200	0.675700	0.771300
H331	H33	0.586300	0.714100	0.792100
C671	C67	0.601200	0.668200	0.706200
H341	H34	0.648900	0.659700	0.712300
C681	C68	0.593300	0.731200	0.668000
C691	C69	0.446000	0.688100	0.448000
C701	C70	0.401100	0.631200	0.440600
H351	H35	0.377200	0.635200	0.400000
C711	C71	0.442200	0.569500	0.439200
H361	H36	0.477300	0.573500	0.406900
C721	C72	0.395100	0.512900	0.420900
Sb191	Sb19	0.287560	0.339690	0.127020
Sb201	Sb20	0.279970	0.452100	0.253870
Sb211	Sb21	0.206040	0.298300	0.273880
Sb221	Sb22	0.049340	0.521470	0.050860
Sb231	Sb23	0.971550	0.496700	0.202410
Sb241	Sb24	0.971250	0.371790	0.086960
Fe131	Fe13	0.127620	0.413910	0.166730
Fe141	Fe14	0.130660	0.309990	0.061630
Fe151	Fe15	0.192780	0.546390	0.143180
Fe161	Fe16	0.059020	0.385930	0.296410
Mn101	Mn10	0.204930	0.446810	0.021310
Mn111	Mn11	0.123830	0.531120	0.286020
Mn121	Mn12	0.053630	0.264780	0.194890
O1331	O133	0.268600	0.358760	0.224130
O1341	O134	0.986000	0.468650	0.108400
O1351	O135	0.194300	0.369310	0.109060
O1361	O136	0.195200	0.473730	0.208590
O1371	O137	0.129100	0.346440	0.237710
O1381	O138	0.126500	0.485880	0.100140
O1391	O139	0.056800	0.452900	0.224310
O1401	O140	0.062100	0.356170	0.119000
O1411	O141	0.305600	0.383300	0.026600
O1421	O142	0.391300	0.437900	0.985000
O1431	O143	0.326400	0.427200	0.142100
O1441	O144	0.252800	0.516800	0.073600
O1451	O145	0.280100	0.579400	0.175800
O1461	O146	0.390000	0.585900	0.155800
O1471	O147	0.235500	0.533800	0.322800
O1481	O148	0.248100	0.544900	0.427100
O1491	O149	0.237500	0.407800	0.329500
O1501	O150	0.107000	0.453200	0.344000
O1511	O151	0.091700	0.334700	0.371300
O1521	O152	0.151700	0.337900	0.460900
O1531	O153	0.126300	0.214200	0.265900
O1541	O154	0.140300	0.109500	0.244800
O1551	O155	0.231400	0.246600	0.195600
O1561	O156	0.116200	0.237200	0.120900
O1571	O157	0.206200	0.253400	0.036200
O1581	O158	0.253600	0.157300	0.050100
O1591	O159	0.842000	0.121600	0.407500
O1601	O160	0.901700	0.210400	0.403000
O1611	O161	0.860700	0.090500	0.291100
O1621	O162	0.989000	0.075150	0.340900
O1631	O163	0.991000	0.065610	0.214700
O1641	O164	0.006400	0.169600	0.201800
O1651	O165	0.969500	0.416900	0.328000
O1661	O166	0.861100	0.393700	0.329300
O1671	O167	0.002400	0.316230	0.263400
O1681	O168	0.927300	0.383100	0.173500
O1691	O169	0.956200	0.269100	0.129100
O1701	O170	0.870200	0.223900	0.178800
O1711	O171	0.057600	0.282600	0.001100
O1721	O172	0.018700	0.295100	0.903100
O1731	O173	0.145900	0.370300	0.990100
O1741	O174	0.028600	0.441600	0.998400
O1751	O175	0.129500	0.516600	0.970000
O1761	O176	0.118200	0.497500	0.864800
C731	C73	0.353500	0.425400	0.029200
C741	C74	0.357700	0.461900	0.091600
H371	H37	0.404800	0.468800	0.102400
C751	C75	0.323300	0.526300	0.084700
H381	H38	0.342300	0.548600	0.047800
C761	C76	0.334000	0.567400	0.143200
C771	C77	0.237200	0.512500	0.380000
C781	C78	0.220200	0.440900	0.386100
H391	H39	0.244900	0.422600	0.422100
C791	C79	0.145400	0.433000	0.397700
H401	H40	0.133000	0.459600	0.434400
C801	C80	0.128800	0.364300	0.413100
C811	C81	0.152500	0.167400	0.236100
C821	C82	0.202100	0.186100	0.183300
H411	H41	0.237200	0.153500	0.180700
C831	C83	0.164700	0.188600	0.120500
H421	H42	0.141900	0.147500	0.114500
C841	C84	0.210700	0.198700	0.065100
C851	C85	0.879500	0.160600	0.378900
C861	C86	0.898600	0.143900	0.309900
H431	H43	0.887200	0.180100	0.282300
C871	C87	0.972500	0.131800	0.305400
H441	H44	0.996400	0.168400	0.323600
C881	C88	0.992300	0.124100	0.234200
C891	C89	0.917000	0.381500	0.312400
C901	C90	0.931800	0.324300	0.271300
H451	H45	0.913700	0.285900	0.292100
C911	C91	0.898800	0.331800	0.206200
H461	H46	0.851100	0.340300	0.212300
C921	C92	0.906700	0.268800	0.168000
C931	C93	0.054000	0.311900	0.948000
C941	C94	0.098900	0.368800	0.940600
H471	H47	0.122800	0.364800	0.900000
C951	C95	0.057800	0.430500	0.939200
H481	H48	0.022700	0.426500	0.906900
C961	C96	0.104900	0.487100	0.920900
