data_ZAVMIU_clean_PM
_symmetry_space_group_name_H-M	'P1'
_cell_length_a	13.618000
_cell_length_b	13.664000
_cell_length_c	16.954000
_cell_angle_alpha	110.740000
_cell_angle_beta	90.000000
_cell_angle_gamma	90.000000
_symmetry_Int_Tables_number 1

loop_
_symmetry_equiv_pos_as_xyz
'x,y,z'

loop_
_atom_site_label
_atom_site_type_symbol
_atom_site_fract_x
_atom_site_fract_y
_atom_site_fract_z
Mn11	Mn1	0.189440	0.771510	0.660340
Mn21	Mn2	0.284310	0.333930	0.195120
Mn31	Mn3	0.689440	0.228490	0.839660
Mn41	Mn4	0.784310	0.666070	0.304880
Mn51	Mn5	0.810560	0.228490	0.339660
Mn61	Mn6	0.715690	0.666070	0.804880
Mn71	Mn7	0.310560	0.771510	0.160340
Mn81	Mn8	0.215690	0.333930	0.695120
Ru11	Ru1	0.526290	0.998380	0.436410
Ru21	Ru2	0.077820	0.989220	0.475370
Ru31	Ru3	0.502020	0.566950	0.475730
Ru41	Ru4	0.026290	0.001620	0.063590
Ru51	Ru5	0.577820	0.010780	0.024630
Ru61	Ru6	0.002020	0.433050	0.024270
Ru71	Ru7	0.473710	0.001620	0.563590
Ru81	Ru8	0.922180	0.010780	0.524630
Ru91	Ru9	0.497980	0.433050	0.524270
Ru101	Ru10	0.973710	0.998380	0.936410
Ru111	Ru11	0.422180	0.989220	0.975370
Ru121	Ru12	0.997980	0.566950	0.975730
C11	C1	0.507600	0.790700	0.446400
C21	C2	0.314800	0.983300	0.445400
C31	C3	0.955200	0.808200	0.395800
C41	C4	0.052700	0.927600	0.620900
C51	C5	0.371800	0.399000	0.378600
C61	C6	0.651400	0.409300	0.399600
C71	C7	0.007600	0.209300	0.053600
C81	C8	0.814800	0.016700	0.054600
C91	C9	0.455200	0.191800	0.104200
C101	C10	0.552700	0.072400	0.879100
C111	C11	0.871800	0.601000	0.121400
C121	C12	0.151400	0.590700	0.100400
C131	C13	0.492400	0.209300	0.553600
C141	C14	0.685200	0.016700	0.554600
C151	C15	0.044800	0.191800	0.604200
C161	C16	0.947300	0.072400	0.379100
C171	C17	0.628200	0.601000	0.621400
C181	C18	0.348600	0.590700	0.600400
C191	C19	0.992400	0.790700	0.946400
C201	C20	0.185200	0.983300	0.945400
C211	C21	0.544800	0.808200	0.895800
C221	C22	0.447300	0.927600	0.120900
C231	C23	0.128200	0.399000	0.878600
C241	C24	0.848600	0.409300	0.899600
O11	O1	0.531200	0.840300	0.396100
O21	O2	0.479900	0.842500	0.523300
O31	O3	0.511700	0.692000	0.417400
O41	O4	0.386100	0.988000	0.395700
O51	O5	0.332300	0.991300	0.522700
O61	O6	0.228600	0.970700	0.415600
O71	O7	0.045100	0.841600	0.398100
O81	O8	0.889900	0.864300	0.447000
O91	O9	0.932900	0.720600	0.340400
O101	O10	0.117200	0.936500	0.568500
O111	O11	0.962100	0.955700	0.616500
O121	O12	0.076000	0.891600	0.677800
O131	O13	0.405000	0.490200	0.383800
O141	O14	0.311600	0.349600	0.322200
O151	O15	0.401200	0.357000	0.432900
O161	O16	0.617000	0.498600	0.400300
O171	O17	0.611000	0.363700	0.446900
O181	O18	0.723700	0.367900	0.352500
O191	O19	0.031200	0.159700	0.103900
O201	O20	0.979900	0.157500	0.976700
O211	O21	0.011700	0.308000	0.082600
O221	O22	0.886100	0.012000	0.104300
O231	O23	0.832300	0.008700	0.977300
O241	O24	0.728600	0.029300	0.084400
O251	O25	0.545100	0.158400	0.101900
O261	O26	0.389900	0.135700	0.053000
O271	O27	0.432900	0.279400	0.159600
O281	O28	0.617200	0.063500	0.931500
O291	O29	0.462100	0.044300	0.883500
O301	O30	0.576000	0.108400	0.822200
O311	O31	0.905000	0.509800	0.116200
O321	O32	0.811600	0.650400	0.177800
O331	O33	0.901200	0.643000	0.067100
O341	O34	0.117000	0.501400	0.099700
O351	O35	0.111000	0.636300	0.053100
O361	O36	0.223700	0.632100	0.147500
O371	O37	0.468800	0.159700	0.603900
O381	O38	0.520100	0.157500	0.476700
O391	O39	0.488300	0.308000	0.582600
O401	O40	0.613900	0.012000	0.604300
O411	O41	0.667700	0.008700	0.477300
O421	O42	0.771400	0.029300	0.584400
O431	O43	0.954900	0.158400	0.601900
O441	O44	0.110100	0.135700	0.553000
O451	O45	0.067100	0.279400	0.659600
O461	O46	0.882800	0.063500	0.431500
O471	O47	0.037900	0.044300	0.383500
O481	O48	0.924000	0.108400	0.322200
O491	O49	0.595000	0.509800	0.616200
O501	O50	0.688400	0.650400	0.677800
O511	O51	0.598800	0.643000	0.567100
O521	O52	0.383000	0.501400	0.599700
O531	O53	0.389000	0.636300	0.553100
O541	O54	0.276300	0.632100	0.647500
O551	O55	0.968800	0.840300	0.896100
O561	O56	0.020100	0.842500	0.023300
O571	O57	0.988300	0.692000	0.917400
O581	O58	0.113900	0.988000	0.895700
O591	O59	0.167700	0.991300	0.022700
O601	O60	0.271400	0.970700	0.915600
O611	O61	0.454900	0.841600	0.898100
O621	O62	0.610100	0.864300	0.947000
O631	O63	0.567100	0.720600	0.840400
O641	O64	0.382800	0.936500	0.068500
O651	O65	0.537900	0.955700	0.116500
O661	O66	0.424000	0.891600	0.177800
O671	O67	0.095000	0.490200	0.883800
O681	O68	0.188400	0.349600	0.822200
O691	O69	0.098800	0.357000	0.932900
O701	O70	0.883000	0.498600	0.900300
O711	O71	0.889000	0.363700	0.946900
O721	O72	0.776300	0.367900	0.852500
