data_ZAVPOD_clean_PM
_symmetry_space_group_name_H-M	'P1'
_cell_length_a	23.704600
_cell_length_b	15.798700
_cell_length_c	16.239800
_cell_angle_alpha	90.000000
_cell_angle_beta	124.204000
_cell_angle_gamma	90.000000
_symmetry_Int_Tables_number 1

loop_
_symmetry_equiv_pos_as_xyz
'x,y,z'

loop_
_atom_site_label
_atom_site_type_symbol
_atom_site_fract_x
_atom_site_fract_y
_atom_site_fract_z
Pr11	Pr1	0.810850	0.829300	0.621460
C11	C1	0.127800	0.463100	0.322500
C21	C2	0.139900	0.545000	0.359100
H11	H1	0.176600	0.556200	0.425900
C31	C3	0.098300	0.610800	0.298000
C41	C4	0.044100	0.594700	0.200100
C51	C5	0.031100	0.512000	0.165300
H21	H2	0.993300	0.500200	0.099500
C61	C6	0.072600	0.446900	0.225700
H31	H3	0.063400	0.390500	0.201100
C71	C7	0.018000	0.690300	0.072900
C81	C8	0.083700	0.687000	0.095800
H41	H4	0.119100	0.661000	0.155700
C91	C9	0.097660	0.722100	0.030600
C101	C10	0.045220	0.758100	0.941200
H51	H5	0.054300	0.780200	0.895300
C111	C11	0.979280	0.761300	0.919500
C121	C12	0.965510	0.727600	0.985800
H61	H6	0.920800	0.730300	0.971500
C131	C13	0.175800	0.392400	0.386800
C141	C14	0.170120	0.719900	0.060800
C151	C15	0.921940	0.798700	0.823300
N11	N1	0.114500	0.695900	0.340400
O11	O1	0.166840	0.322850	0.343600
O21	O2	0.220420	0.409420	0.476000
O31	O3	0.151000	0.702300	0.431500
O41	O4	0.091800	0.756900	0.285400
O51	O5	0.212660	0.678200	0.136900
O61	O6	0.187340	0.759440	0.010500
O71	O7	0.933900	0.824670	0.760700
O81	O8	0.863390	0.801750	0.806480
O91	O9	0.000740	0.657200	0.135400
Pr21	Pr2	0.310850	0.329300	0.621460
C161	C16	0.627800	0.963100	0.322500
C171	C17	0.639900	0.045000	0.359100
H71	H7	0.676600	0.056200	0.425900
C181	C18	0.598300	0.110800	0.298000
C191	C19	0.544100	0.094700	0.200100
C201	C20	0.531100	0.012000	0.165300
H81	H8	0.493300	0.000200	0.099500
C211	C21	0.572600	0.946900	0.225700
H91	H9	0.563400	0.890500	0.201100
C221	C22	0.518000	0.190300	0.072900
C231	C23	0.583700	0.187000	0.095800
H101	H10	0.619100	0.161000	0.155700
C241	C24	0.597660	0.222100	0.030600
C251	C25	0.545220	0.258100	0.941200
H111	H11	0.554300	0.280200	0.895300
C261	C26	0.479280	0.261300	0.919500
C271	C27	0.465510	0.227600	0.985800
H121	H12	0.420800	0.230300	0.971500
C281	C28	0.675800	0.892400	0.386800
C291	C29	0.670120	0.219900	0.060800
C301	C30	0.421940	0.298700	0.823300
N21	N2	0.614500	0.195900	0.340400
O101	O10	0.666840	0.822850	0.343600
O111	O11	0.720420	0.909420	0.476000
O121	O12	0.651000	0.202300	0.431500
O131	O13	0.591800	0.256900	0.285400
O141	O14	0.712660	0.178200	0.136900
O151	O15	0.687340	0.259440	0.010500
O161	O16	0.433900	0.324670	0.760700
O171	O17	0.363390	0.301750	0.806480
O181	O18	0.500740	0.157200	0.135400
Pr31	Pr3	0.189150	0.829300	0.878540
C311	C31	0.872200	0.463100	0.177500
C321	C32	0.860100	0.545000	0.140900
H131	H13	0.823400	0.556200	0.074100
C331	C33	0.901700	0.610800	0.202000
C341	C34	0.955900	0.594700	0.299900
C351	C35	0.968900	0.512000	0.334700
H141	H14	0.006700	0.500200	0.400500
C361	C36	0.927400	0.446900	0.274300
H151	H15	0.936600	0.390500	0.298900
C371	C37	0.982000	0.690300	0.427100
C381	C38	0.916300	0.687000	0.404200
H161	H16	0.880900	0.661000	0.344300
C391	C39	0.902340	0.722100	0.469400
C401	C40	0.954780	0.758100	0.558800
H171	H17	0.945700	0.780200	0.604700
C411	C41	0.020720	0.761300	0.580500
C421	C42	0.034490	0.727600	0.514200
H181	H18	0.079200	0.730300	0.528500
C431	C43	0.824200	0.392400	0.113200
C441	C44	0.829880	0.719900	0.439200
C451	C45	0.078060	0.798700	0.676700
N31	N3	0.885500	0.695900	0.159600
O191	O19	0.833160	0.322850	0.156400
O201	O20	0.779580	0.409420	0.024000
O211	O21	0.849000	0.702300	0.068500
O221	O22	0.908200	0.756900	0.214600
O231	O23	0.787340	0.678200	0.363100
O241	O24	0.812660	0.759440	0.489500
O251	O25	0.066100	0.824670	0.739300
O261	O26	0.136610	0.801750	0.693520
O271	O27	0.999260	0.657200	0.364600
Pr41	Pr4	0.689150	0.329300	0.878540
C461	C46	0.372200	0.963100	0.177500
C471	C47	0.360100	0.045000	0.140900
H191	H19	0.323400	0.056200	0.074100
C481	C48	0.401700	0.110800	0.202000
C491	C49	0.455900	0.094700	0.299900
C501	C50	0.468900	0.012000	0.334700
H201	H20	0.506700	0.000200	0.400500
C511	C51	0.427400	0.946900	0.274300
H211	H21	0.436600	0.890500	0.298900
C521	C52	0.482000	0.190300	0.427100
C531	C53	0.416300	0.187000	0.404200
H221	H22	0.380900	0.161000	0.344300
C541	C54	0.402340	0.222100	0.469400
C551	C55	0.454780	0.258100	0.558800
H231	H23	0.445700	0.280200	0.604700
C561	C56	0.520720	0.261300	0.580500
C571	C57	0.534490	0.227600	0.514200
H241	H24	0.579200	0.230300	0.528500
C581	C58	0.324200	0.892400	0.113200
C591	C59	0.329880	0.219900	0.439200
C601	C60	0.578060	0.298700	0.676700
N41	N4	0.385500	0.195900	0.159600
O281	O28	0.333160	0.822850	0.156400
O291	O29	0.279580	0.909420	0.024000
O301	O30	0.349000	0.202300	0.068500
O311	O31	0.408200	0.256900	0.214600
O321	O32	0.287340	0.178200	0.363100
O331	O33	0.312660	0.259440	0.489500
O341	O34	0.566100	0.324670	0.739300
O351	O35	0.636610	0.301750	0.693520
O361	O36	0.499260	0.157200	0.364600
Pr51	Pr5	0.189150	0.170700	0.378540
C611	C61	0.872200	0.536900	0.677500
C621	C62	0.860100	0.455000	0.640900
H251	H25	0.823400	0.443800	0.574100
C631	C63	0.901700	0.389200	0.702000
C641	C64	0.955900	0.405300	0.799900
C651	C65	0.968900	0.488000	0.834700
H261	H26	0.006700	0.499800	0.900500
C661	C66	0.927400	0.553100	0.774300
H271	H27	0.936600	0.609500	0.798900
C671	C67	0.982000	0.309700	0.927100
C681	C68	0.916300	0.313000	0.904200
H281	H28	0.880900	0.339000	0.844300
C691	C69	0.902340	0.277900	0.969400
C701	C70	0.954780	0.241900	0.058800
H291	H29	0.945700	0.219800	0.104700
C711	C71	0.020720	0.238700	0.080500
C721	C72	0.034490	0.272400	0.014200
H301	H30	0.079200	0.269700	0.028500
C731	C73	0.824200	0.607600	0.613200
C741	C74	0.829880	0.280100	0.939200
C751	C75	0.078060	0.201300	0.176700
N51	N5	0.885500	0.304100	0.659600
O371	O37	0.833160	0.677150	0.656400
O381	O38	0.779580	0.590580	0.524000
O391	O39	0.849000	0.297700	0.568500
O401	O40	0.908200	0.243100	0.714600
O411	O41	0.787340	0.321800	0.863100
O421	O42	0.812660	0.240560	0.989500
O431	O43	0.066100	0.175330	0.239300
O441	O44	0.136610	0.198250	0.193520
O451	O45	0.999260	0.342800	0.864600
Pr61	Pr6	0.689150	0.670700	0.378540
C761	C76	0.372200	0.036900	0.677500
C771	C77	0.360100	0.955000	0.640900
H311	H31	0.323400	0.943800	0.574100
C781	C78	0.401700	0.889200	0.702000
C791	C79	0.455900	0.905300	0.799900
C801	C80	0.468900	0.988000	0.834700
H321	H32	0.506700	0.999800	0.900500
C811	C81	0.427400	0.053100	0.774300
H331	H33	0.436600	0.109500	0.798900
C821	C82	0.482000	0.809700	0.927100
C831	C83	0.416300	0.813000	0.904200
H341	H34	0.380900	0.839000	0.844300
C841	C84	0.402340	0.777900	0.969400
C851	C85	0.454780	0.741900	0.058800
H351	H35	0.445700	0.719800	0.104700
C861	C86	0.520720	0.738700	0.080500
C871	C87	0.534490	0.772400	0.014200
H361	H36	0.579200	0.769700	0.028500
C881	C88	0.324200	0.107600	0.613200
C891	C89	0.329880	0.780100	0.939200
C901	C90	0.578060	0.701300	0.176700
N61	N6	0.385500	0.804100	0.659600
O461	O46	0.333160	0.177150	0.656400
O471	O47	0.279580	0.090580	0.524000
O481	O48	0.349000	0.797700	0.568500
O491	O49	0.408200	0.743100	0.714600
O501	O50	0.287340	0.821800	0.863100
O511	O51	0.312660	0.740560	0.989500
O521	O52	0.566100	0.675330	0.239300
O531	O53	0.636610	0.698250	0.193520
O541	O54	0.499260	0.842800	0.864600
Pr71	Pr7	0.810850	0.170700	0.121460
C911	C91	0.127800	0.536900	0.822500
C921	C92	0.139900	0.455000	0.859100
H371	H37	0.176600	0.443800	0.925900
C931	C93	0.098300	0.389200	0.798000
C941	C94	0.044100	0.405300	0.700100
C951	C95	0.031100	0.488000	0.665300
H381	H38	0.993300	0.499800	0.599500
C961	C96	0.072600	0.553100	0.725700
H391	H39	0.063400	0.609500	0.701100
C971	C97	0.018000	0.309700	0.572900
C981	C98	0.083700	0.313000	0.595800
H401	H40	0.119100	0.339000	0.655700
C991	C99	0.097660	0.277900	0.530600
C1001	C100	0.045220	0.241900	0.441200
H411	H41	0.054300	0.219800	0.395300
C1011	C101	0.979280	0.238700	0.419500
C1021	C102	0.965510	0.272400	0.485800
H421	H42	0.920800	0.269700	0.471500
C1031	C103	0.175800	0.607600	0.886800
C1041	C104	0.170120	0.280100	0.560800
C1051	C105	0.921940	0.201300	0.323300
N71	N7	0.114500	0.304100	0.840400
O551	O55	0.166840	0.677150	0.843600
O561	O56	0.220420	0.590580	0.976000
O571	O57	0.151000	0.297700	0.931500
O581	O58	0.091800	0.243100	0.785400
O591	O59	0.212660	0.321800	0.636900
O601	O60	0.187340	0.240560	0.510500
O611	O61	0.933900	0.175330	0.260700
O621	O62	0.863390	0.198250	0.306480
O631	O63	0.000740	0.342800	0.635400
Pr81	Pr8	0.310850	0.670700	0.121460
C1061	C106	0.627800	0.036900	0.822500
C1071	C107	0.639900	0.955000	0.859100
H431	H43	0.676600	0.943800	0.925900
C1081	C108	0.598300	0.889200	0.798000
C1091	C109	0.544100	0.905300	0.700100
C1101	C110	0.531100	0.988000	0.665300
H441	H44	0.493300	0.999800	0.599500
C1111	C111	0.572600	0.053100	0.725700
H451	H45	0.563400	0.109500	0.701100
C1121	C112	0.518000	0.809700	0.572900
C1131	C113	0.583700	0.813000	0.595800
H461	H46	0.619100	0.839000	0.655700
C1141	C114	0.597660	0.777900	0.530600
C1151	C115	0.545220	0.741900	0.441200
H471	H47	0.554300	0.719800	0.395300
C1161	C116	0.479280	0.738700	0.419500
C1171	C117	0.465510	0.772400	0.485800
H481	H48	0.420800	0.769700	0.471500
C1181	C118	0.675800	0.107600	0.886800
C1191	C119	0.670120	0.780100	0.560800
C1201	C120	0.421940	0.701300	0.323300
N81	N8	0.614500	0.804100	0.840400
O641	O64	0.666840	0.177150	0.843600
O651	O65	0.720420	0.090580	0.976000
O661	O66	0.651000	0.797700	0.931500
O671	O67	0.591800	0.743100	0.785400
O681	O68	0.712660	0.821800	0.636900
O691	O69	0.687340	0.740560	0.510500
O701	O70	0.433900	0.675330	0.260700
O711	O71	0.363390	0.698250	0.306480
O721	O72	0.500740	0.842800	0.635400
