data_ZAVPET_clean_PM
_symmetry_space_group_name_H-M	'P1'
_cell_length_a	23.736900
_cell_length_b	15.821600
_cell_length_c	16.289000
_cell_angle_alpha	90.000000
_cell_angle_beta	124.054000
_cell_angle_gamma	90.000000
_symmetry_Int_Tables_number 1

loop_
_symmetry_equiv_pos_as_xyz
'x,y,z'

loop_
_atom_site_label
_atom_site_type_symbol
_atom_site_fract_x
_atom_site_fract_y
_atom_site_fract_z
La11	La1	0.188740	0.330440	0.378410
C11	C1	0.020200	0.261100	0.079100
C21	C2	0.954700	0.257600	0.057400
H11	H1	0.945300	0.280200	0.102500
C31	C3	0.903300	0.221000	0.969400
C41	C4	0.917300	0.185300	0.905000
H21	H2	0.882300	0.158900	0.845500
C51	C5	0.982800	0.188700	0.928600
C61	C6	0.034700	0.226800	0.014000
H31	H3	0.079400	0.229700	0.028300
C71	C7	0.956600	0.093200	0.801300
C81	C8	0.903100	0.109900	0.704200
C91	C9	0.861300	0.044900	0.643100
H41	H4	0.824900	0.056600	0.576700
C101	C10	0.872700	0.963000	0.678800
C111	C11	0.927500	0.946300	0.774800
H51	H5	0.936200	0.890000	0.799200
C121	C12	0.969400	0.010800	0.834900
H61	H6	0.007400	0.998500	0.899800
C131	C13	0.077700	0.299700	0.175200
C141	C14	0.830900	0.218000	0.939100
C151	C15	0.824700	0.893300	0.615300
N11	N1	0.886800	0.195400	0.662500
O11	O1	0.135660	0.302800	0.191500
O21	O2	0.064670	0.325900	0.236100
O31	O3	0.813160	0.257900	0.988700
O41	O4	0.788930	0.175800	0.863900
O51	O5	0.910600	0.256000	0.717800
O61	O6	0.850200	0.202600	0.571800
O71	O7	0.779900	0.911300	0.526600
O81	O8	0.832980	0.823600	0.656300
O91	O9	0.000120	0.155400	0.865800
La21	La2	0.688740	0.830440	0.378410
C161	C16	0.520200	0.761100	0.079100
C171	C17	0.454700	0.757600	0.057400
H71	H7	0.445300	0.780200	0.102500
C181	C18	0.403300	0.721000	0.969400
C191	C19	0.417300	0.685300	0.905000
H81	H8	0.382300	0.658900	0.845500
C201	C20	0.482800	0.688700	0.928600
C211	C21	0.534700	0.726800	0.014000
H91	H9	0.579400	0.729700	0.028300
C221	C22	0.456600	0.593200	0.801300
C231	C23	0.403100	0.609900	0.704200
C241	C24	0.361300	0.544900	0.643100
H101	H10	0.324900	0.556600	0.576700
C251	C25	0.372700	0.463000	0.678800
C261	C26	0.427500	0.446300	0.774800
H111	H11	0.436200	0.390000	0.799200
C271	C27	0.469400	0.510800	0.834900
H121	H12	0.507400	0.498500	0.899800
C281	C28	0.577700	0.799700	0.175200
C291	C29	0.330900	0.718000	0.939100
C301	C30	0.324700	0.393300	0.615300
N21	N2	0.386800	0.695400	0.662500
O101	O10	0.635660	0.802800	0.191500
O111	O11	0.564670	0.825900	0.236100
O121	O12	0.313160	0.757900	0.988700
O131	O13	0.288930	0.675800	0.863900
O141	O14	0.410600	0.756000	0.717800
O151	O15	0.350200	0.702600	0.571800
O161	O16	0.279900	0.411300	0.526600
O171	O17	0.332980	0.323600	0.656300
O181	O18	0.500120	0.655400	0.865800
La31	La3	0.811260	0.330440	0.121590
C311	C31	0.979800	0.261100	0.420900
C321	C32	0.045300	0.257600	0.442600
H131	H13	0.054700	0.280200	0.397500
C331	C33	0.096700	0.221000	0.530600
C341	C34	0.082700	0.185300	0.595000
H141	H14	0.117700	0.158900	0.654500
C351	C35	0.017200	0.188700	0.571400
C361	C36	0.965300	0.226800	0.486000
H151	H15	0.920600	0.229700	0.471700
C371	C37	0.043400	0.093200	0.698700
C381	C38	0.096900	0.109900	0.795800
C391	C39	0.138700	0.044900	0.856900
H161	H16	0.175100	0.056600	0.923300
C401	C40	0.127300	0.963000	0.821200
C411	C41	0.072500	0.946300	0.725200
H171	H17	0.063800	0.890000	0.700800
C421	C42	0.030600	0.010800	0.665100
H181	H18	0.992600	0.998500	0.600200
C431	C43	0.922300	0.299700	0.324800
C441	C44	0.169100	0.218000	0.560900
C451	C45	0.175300	0.893300	0.884700
N31	N3	0.113200	0.195400	0.837500
O191	O19	0.864340	0.302800	0.308500
O201	O20	0.935330	0.325900	0.263900
O211	O21	0.186840	0.257900	0.511300
O221	O22	0.211070	0.175800	0.636100
O231	O23	0.089400	0.256000	0.782200
O241	O24	0.149800	0.202600	0.928200
O251	O25	0.220100	0.911300	0.973400
O261	O26	0.167020	0.823600	0.843700
O271	O27	0.999880	0.155400	0.634200
La41	La4	0.311260	0.830440	0.121590
C461	C46	0.479800	0.761100	0.420900
C471	C47	0.545300	0.757600	0.442600
H191	H19	0.554700	0.780200	0.397500
C481	C48	0.596700	0.721000	0.530600
C491	C49	0.582700	0.685300	0.595000
H201	H20	0.617700	0.658900	0.654500
C501	C50	0.517200	0.688700	0.571400
C511	C51	0.465300	0.726800	0.486000
H211	H21	0.420600	0.729700	0.471700
C521	C52	0.543400	0.593200	0.698700
C531	C53	0.596900	0.609900	0.795800
C541	C54	0.638700	0.544900	0.856900
H221	H22	0.675100	0.556600	0.923300
C551	C55	0.627300	0.463000	0.821200
C561	C56	0.572500	0.446300	0.725200
H231	H23	0.563800	0.390000	0.700800
C571	C57	0.530600	0.510800	0.665100
H241	H24	0.492600	0.498500	0.600200
C581	C58	0.422300	0.799700	0.324800
C591	C59	0.669100	0.718000	0.560900
C601	C60	0.675300	0.393300	0.884700
N41	N4	0.613200	0.695400	0.837500
O281	O28	0.364340	0.802800	0.308500
O291	O29	0.435330	0.825900	0.263900
O301	O30	0.686840	0.757900	0.511300
O311	O31	0.711070	0.675800	0.636100
O321	O32	0.589400	0.756000	0.782200
O331	O33	0.649800	0.702600	0.928200
O341	O34	0.720100	0.411300	0.973400
O351	O35	0.667020	0.323600	0.843700
O361	O36	0.499880	0.655400	0.634200
La51	La5	0.811260	0.669560	0.621590
C611	C61	0.979800	0.738900	0.920900
C621	C62	0.045300	0.742400	0.942600
H251	H25	0.054700	0.719800	0.897500
C631	C63	0.096700	0.779000	0.030600
C641	C64	0.082700	0.814700	0.095000
H261	H26	0.117700	0.841100	0.154500
C651	C65	0.017200	0.811300	0.071400
C661	C66	0.965300	0.773200	0.986000
H271	H27	0.920600	0.770300	0.971700
C671	C67	0.043400	0.906800	0.198700
C681	C68	0.096900	0.890100	0.295800
C691	C69	0.138700	0.955100	0.356900
H281	H28	0.175100	0.943400	0.423300
C701	C70	0.127300	0.037000	0.321200
C711	C71	0.072500	0.053700	0.225200
H291	H29	0.063800	0.110000	0.200800
C721	C72	0.030600	0.989200	0.165100
H301	H30	0.992600	0.001500	0.100200
C731	C73	0.922300	0.700300	0.824800
C741	C74	0.169100	0.782000	0.060900
C751	C75	0.175300	0.106700	0.384700
N51	N5	0.113200	0.804600	0.337500
O371	O37	0.864340	0.697200	0.808500
O381	O38	0.935330	0.674100	0.763900
O391	O39	0.186840	0.742100	0.011300
O401	O40	0.211070	0.824200	0.136100
O411	O41	0.089400	0.744000	0.282200
O421	O42	0.149800	0.797400	0.428200
O431	O43	0.220100	0.088700	0.473400
O441	O44	0.167020	0.176400	0.343700
O451	O45	0.999880	0.844600	0.134200
La61	La6	0.311260	0.169560	0.621590
C761	C76	0.479800	0.238900	0.920900
C771	C77	0.545300	0.242400	0.942600
H311	H31	0.554700	0.219800	0.897500
C781	C78	0.596700	0.279000	0.030600
C791	C79	0.582700	0.314700	0.095000
H321	H32	0.617700	0.341100	0.154500
C801	C80	0.517200	0.311300	0.071400
C811	C81	0.465300	0.273200	0.986000
H331	H33	0.420600	0.270300	0.971700
C821	C82	0.543400	0.406800	0.198700
C831	C83	0.596900	0.390100	0.295800
C841	C84	0.638700	0.455100	0.356900
H341	H34	0.675100	0.443400	0.423300
C851	C85	0.627300	0.537000	0.321200
C861	C86	0.572500	0.553700	0.225200
H351	H35	0.563800	0.610000	0.200800
C871	C87	0.530600	0.489200	0.165100
H361	H36	0.492600	0.501500	0.100200
C881	C88	0.422300	0.200300	0.824800
C891	C89	0.669100	0.282000	0.060900
C901	C90	0.675300	0.606700	0.384700
N61	N6	0.613200	0.304600	0.337500
O461	O46	0.364340	0.197200	0.808500
O471	O47	0.435330	0.174100	0.763900
O481	O48	0.686840	0.242100	0.011300
O491	O49	0.711070	0.324200	0.136100
O501	O50	0.589400	0.244000	0.282200
O511	O51	0.649800	0.297400	0.428200
O521	O52	0.720100	0.588700	0.473400
O531	O53	0.667020	0.676400	0.343700
O541	O54	0.499880	0.344600	0.134200
La71	La7	0.188740	0.669560	0.878410
C911	C91	0.020200	0.738900	0.579100
C921	C92	0.954700	0.742400	0.557400
H371	H37	0.945300	0.719800	0.602500
C931	C93	0.903300	0.779000	0.469400
C941	C94	0.917300	0.814700	0.405000
H381	H38	0.882300	0.841100	0.345500
C951	C95	0.982800	0.811300	0.428600
C961	C96	0.034700	0.773200	0.514000
H391	H39	0.079400	0.770300	0.528300
C971	C97	0.956600	0.906800	0.301300
C981	C98	0.903100	0.890100	0.204200
C991	C99	0.861300	0.955100	0.143100
H401	H40	0.824900	0.943400	0.076700
C1001	C100	0.872700	0.037000	0.178800
C1011	C101	0.927500	0.053700	0.274800
H411	H41	0.936200	0.110000	0.299200
C1021	C102	0.969400	0.989200	0.334900
H421	H42	0.007400	0.001500	0.399800
C1031	C103	0.077700	0.700300	0.675200
C1041	C104	0.830900	0.782000	0.439100
C1051	C105	0.824700	0.106700	0.115300
N71	N7	0.886800	0.804600	0.162500
O551	O55	0.135660	0.697200	0.691500
O561	O56	0.064670	0.674100	0.736100
O571	O57	0.813160	0.742100	0.488700
O581	O58	0.788930	0.824200	0.363900
O591	O59	0.910600	0.744000	0.217800
O601	O60	0.850200	0.797400	0.071800
O611	O61	0.779900	0.088700	0.026600
O621	O62	0.832980	0.176400	0.156300
O631	O63	0.000120	0.844600	0.365800
La81	La8	0.688740	0.169560	0.878410
C1061	C106	0.520200	0.238900	0.579100
C1071	C107	0.454700	0.242400	0.557400
H431	H43	0.445300	0.219800	0.602500
C1081	C108	0.403300	0.279000	0.469400
C1091	C109	0.417300	0.314700	0.405000
H441	H44	0.382300	0.341100	0.345500
C1101	C110	0.482800	0.311300	0.428600
C1111	C111	0.534700	0.273200	0.514000
H451	H45	0.579400	0.270300	0.528300
C1121	C112	0.456600	0.406800	0.301300
C1131	C113	0.403100	0.390100	0.204200
C1141	C114	0.361300	0.455100	0.143100
H461	H46	0.324900	0.443400	0.076700
C1151	C115	0.372700	0.537000	0.178800
C1161	C116	0.427500	0.553700	0.274800
H471	H47	0.436200	0.610000	0.299200
C1171	C117	0.469400	0.489200	0.334900
H481	H48	0.507400	0.501500	0.399800
C1181	C118	0.577700	0.200300	0.675200
C1191	C119	0.330900	0.282000	0.439100
C1201	C120	0.324700	0.606700	0.115300
N81	N8	0.386800	0.304600	0.162500
O641	O64	0.635660	0.197200	0.691500
O651	O65	0.564670	0.174100	0.736100
O661	O66	0.313160	0.242100	0.488700
O671	O67	0.288930	0.324200	0.363900
O681	O68	0.410600	0.244000	0.217800
O691	O69	0.350200	0.297400	0.071800
O701	O70	0.279900	0.588700	0.026600
O711	O71	0.332980	0.676400	0.156300
O721	O72	0.500120	0.344600	0.365800
