data_ZAVQIY_clean_PM
_symmetry_space_group_name_H-M	'P1'
_cell_length_a	23.561900
_cell_length_b	15.671400
_cell_length_c	16.115800
_cell_angle_alpha	90.000000
_cell_angle_beta	124.238000
_cell_angle_gamma	90.000000
_symmetry_Int_Tables_number 1

loop_
_symmetry_equiv_pos_as_xyz
'x,y,z'

loop_
_atom_site_label
_atom_site_type_symbol
_atom_site_fract_x
_atom_site_fract_y
_atom_site_fract_z
Gd11	Gd1	0.689700	0.672130	0.877760
C11	C1	0.402500	0.775900	0.471100
C21	C2	0.455600	0.741400	0.561200
H11	H1	0.447000	0.719700	0.608200
C31	C3	0.521500	0.738700	0.582300
C41	C4	0.534300	0.772300	0.514200
H21	H2	0.579200	0.770100	0.528100
C51	C5	0.481400	0.808700	0.426700
C61	C6	0.415200	0.810800	0.404100
H31	H3	0.379000	0.836000	0.343400
C71	C7	0.453600	0.905300	0.297900
C81	C8	0.399200	0.889600	0.199100
C91	C9	0.357700	0.955600	0.138100
H41	H4	0.321100	0.944300	0.070700
C101	C10	0.369300	0.038300	0.174800
C111	C11	0.424800	0.054000	0.272500
H51	H5	0.434000	0.110600	0.298000
C121	C12	0.466700	0.987800	0.333000
H61	H6	0.504800	0.999500	0.399300
C131	C13	0.329700	0.776600	0.442100
C141	C14	0.580000	0.703000	0.679500
C151	C15	0.321500	0.109400	0.111000
N11	N1	0.383200	0.803800	0.156200
O11	O1	0.285900	0.816400	0.364700
O21	O2	0.314560	0.737320	0.495500
O31	O3	0.569010	0.678560	0.744400
O41	O4	0.638550	0.699900	0.695900
O51	O5	0.405600	0.742400	0.212000
O61	O6	0.347400	0.797400	0.064200
O71	O7	0.278210	0.093520	0.019600
O81	O8	0.329510	0.178430	0.154900
O91	O9	0.497580	0.842200	0.362600
Gd21	Gd2	0.189700	0.172130	0.877760
C161	C16	0.902500	0.275900	0.471100
C171	C17	0.955600	0.241400	0.561200
H71	H7	0.947000	0.219700	0.608200
C181	C18	0.021500	0.238700	0.582300
C191	C19	0.034300	0.272300	0.514200
H81	H8	0.079200	0.270100	0.528100
C201	C20	0.981400	0.308700	0.426700
C211	C21	0.915200	0.310800	0.404100
H91	H9	0.879000	0.336000	0.343400
C221	C22	0.953600	0.405300	0.297900
C231	C23	0.899200	0.389600	0.199100
C241	C24	0.857700	0.455600	0.138100
H101	H10	0.821100	0.444300	0.070700
C251	C25	0.869300	0.538300	0.174800
C261	C26	0.924800	0.554000	0.272500
H111	H11	0.934000	0.610600	0.298000
C271	C27	0.966700	0.487800	0.333000
H121	H12	0.004800	0.499500	0.399300
C281	C28	0.829700	0.276600	0.442100
C291	C29	0.080000	0.203000	0.679500
C301	C30	0.821500	0.609400	0.111000
N21	N2	0.883200	0.303800	0.156200
O101	O10	0.785900	0.316400	0.364700
O111	O11	0.814560	0.237320	0.495500
O121	O12	0.069010	0.178560	0.744400
O131	O13	0.138550	0.199900	0.695900
O141	O14	0.905600	0.242400	0.212000
O151	O15	0.847400	0.297400	0.064200
O161	O16	0.778210	0.593520	0.019600
O171	O17	0.829510	0.678430	0.154900
O181	O18	0.997580	0.342200	0.362600
Gd31	Gd3	0.310300	0.672130	0.622240
C311	C31	0.597500	0.775900	0.028900
C321	C32	0.544400	0.741400	0.938800
H131	H13	0.553000	0.719700	0.891800
C331	C33	0.478500	0.738700	0.917700
C341	C34	0.465700	0.772300	0.985800
H141	H14	0.420800	0.770100	0.971900
C351	C35	0.518600	0.808700	0.073300
C361	C36	0.584800	0.810800	0.095900
H151	H15	0.621000	0.836000	0.156600
C371	C37	0.546400	0.905300	0.202100
C381	C38	0.600800	0.889600	0.300900
C391	C39	0.642300	0.955600	0.361900
H161	H16	0.678900	0.944300	0.429300
C401	C40	0.630700	0.038300	0.325200
C411	C41	0.575200	0.054000	0.227500
H171	H17	0.566000	0.110600	0.202000
C421	C42	0.533300	0.987800	0.167000
H181	H18	0.495200	0.999500	0.100700
C431	C43	0.670300	0.776600	0.057900
C441	C44	0.420000	0.703000	0.820500
C451	C45	0.678500	0.109400	0.389000
N31	N3	0.616800	0.803800	0.343800
O191	O19	0.714100	0.816400	0.135300
O201	O20	0.685440	0.737320	0.004500
O211	O21	0.430990	0.678560	0.755600
O221	O22	0.361450	0.699900	0.804100
O231	O23	0.594400	0.742400	0.288000
O241	O24	0.652600	0.797400	0.435800
O251	O25	0.721790	0.093520	0.480400
O261	O26	0.670490	0.178430	0.345100
O271	O27	0.502420	0.842200	0.137400
Gd41	Gd4	0.810300	0.172130	0.622240
C461	C46	0.097500	0.275900	0.028900
C471	C47	0.044400	0.241400	0.938800
H191	H19	0.053000	0.219700	0.891800
C481	C48	0.978500	0.238700	0.917700
C491	C49	0.965700	0.272300	0.985800
H201	H20	0.920800	0.270100	0.971900
C501	C50	0.018600	0.308700	0.073300
C511	C51	0.084800	0.310800	0.095900
H211	H21	0.121000	0.336000	0.156600
C521	C52	0.046400	0.405300	0.202100
C531	C53	0.100800	0.389600	0.300900
C541	C54	0.142300	0.455600	0.361900
H221	H22	0.178900	0.444300	0.429300
C551	C55	0.130700	0.538300	0.325200
C561	C56	0.075200	0.554000	0.227500
H231	H23	0.066000	0.610600	0.202000
C571	C57	0.033300	0.487800	0.167000
H241	H24	0.995200	0.499500	0.100700
C581	C58	0.170300	0.276600	0.057900
C591	C59	0.920000	0.203000	0.820500
C601	C60	0.178500	0.609400	0.389000
N41	N4	0.116800	0.303800	0.343800
O281	O28	0.214100	0.316400	0.135300
O291	O29	0.185440	0.237320	0.004500
O301	O30	0.930990	0.178560	0.755600
O311	O31	0.861450	0.199900	0.804100
O321	O32	0.094400	0.242400	0.288000
O331	O33	0.152600	0.297400	0.435800
O341	O34	0.221790	0.593520	0.480400
O351	O35	0.170490	0.678430	0.345100
O361	O36	0.002420	0.342200	0.137400
Gd51	Gd5	0.310300	0.327870	0.122240
C611	C61	0.597500	0.224100	0.528900
C621	C62	0.544400	0.258600	0.438800
H251	H25	0.553000	0.280300	0.391800
C631	C63	0.478500	0.261300	0.417700
C641	C64	0.465700	0.227700	0.485800
H261	H26	0.420800	0.229900	0.471900
C651	C65	0.518600	0.191300	0.573300
C661	C66	0.584800	0.189200	0.595900
H271	H27	0.621000	0.164000	0.656600
C671	C67	0.546400	0.094700	0.702100
C681	C68	0.600800	0.110400	0.800900
C691	C69	0.642300	0.044400	0.861900
H281	H28	0.678900	0.055700	0.929300
C701	C70	0.630700	0.961700	0.825200
C711	C71	0.575200	0.946000	0.727500
H291	H29	0.566000	0.889400	0.702000
C721	C72	0.533300	0.012200	0.667000
H301	H30	0.495200	0.000500	0.600700
C731	C73	0.670300	0.223400	0.557900
C741	C74	0.420000	0.297000	0.320500
C751	C75	0.678500	0.890600	0.889000
N51	N5	0.616800	0.196200	0.843800
O371	O37	0.714100	0.183600	0.635300
O381	O38	0.685440	0.262680	0.504500
O391	O39	0.430990	0.321440	0.255600
O401	O40	0.361450	0.300100	0.304100
O411	O41	0.594400	0.257600	0.788000
O421	O42	0.652600	0.202600	0.935800
O431	O43	0.721790	0.906480	0.980400
O441	O44	0.670490	0.821570	0.845100
O451	O45	0.502420	0.157800	0.637400
Gd61	Gd6	0.810300	0.827870	0.122240
C761	C76	0.097500	0.724100	0.528900
C771	C77	0.044400	0.758600	0.438800
H311	H31	0.053000	0.780300	0.391800
C781	C78	0.978500	0.761300	0.417700
C791	C79	0.965700	0.727700	0.485800
H321	H32	0.920800	0.729900	0.471900
C801	C80	0.018600	0.691300	0.573300
C811	C81	0.084800	0.689200	0.595900
H331	H33	0.121000	0.664000	0.656600
C821	C82	0.046400	0.594700	0.702100
C831	C83	0.100800	0.610400	0.800900
C841	C84	0.142300	0.544400	0.861900
H341	H34	0.178900	0.555700	0.929300
C851	C85	0.130700	0.461700	0.825200
C861	C86	0.075200	0.446000	0.727500
H351	H35	0.066000	0.389400	0.702000
C871	C87	0.033300	0.512200	0.667000
H361	H36	0.995200	0.500500	0.600700
C881	C88	0.170300	0.723400	0.557900
C891	C89	0.920000	0.797000	0.320500
C901	C90	0.178500	0.390600	0.889000
N61	N6	0.116800	0.696200	0.843800
O461	O46	0.214100	0.683600	0.635300
O471	O47	0.185440	0.762680	0.504500
O481	O48	0.930990	0.821440	0.255600
O491	O49	0.861450	0.800100	0.304100
O501	O50	0.094400	0.757600	0.788000
O511	O51	0.152600	0.702600	0.935800
O521	O52	0.221790	0.406480	0.980400
O531	O53	0.170490	0.321570	0.845100
O541	O54	0.002420	0.657800	0.637400
Gd71	Gd7	0.689700	0.327870	0.377760
C911	C91	0.402500	0.224100	0.971100
C921	C92	0.455600	0.258600	0.061200
H371	H37	0.447000	0.280300	0.108200
C931	C93	0.521500	0.261300	0.082300
C941	C94	0.534300	0.227700	0.014200
H381	H38	0.579200	0.229900	0.028100
C951	C95	0.481400	0.191300	0.926700
C961	C96	0.415200	0.189200	0.904100
H391	H39	0.379000	0.164000	0.843400
C971	C97	0.453600	0.094700	0.797900
C981	C98	0.399200	0.110400	0.699100
C991	C99	0.357700	0.044400	0.638100
H401	H40	0.321100	0.055700	0.570700
C1001	C100	0.369300	0.961700	0.674800
C1011	C101	0.424800	0.946000	0.772500
H411	H41	0.434000	0.889400	0.798000
C1021	C102	0.466700	0.012200	0.833000
H421	H42	0.504800	0.000500	0.899300
C1031	C103	0.329700	0.223400	0.942100
C1041	C104	0.580000	0.297000	0.179500
C1051	C105	0.321500	0.890600	0.611000
N71	N7	0.383200	0.196200	0.656200
O551	O55	0.285900	0.183600	0.864700
O561	O56	0.314560	0.262680	0.995500
O571	O57	0.569010	0.321440	0.244400
O581	O58	0.638550	0.300100	0.195900
O591	O59	0.405600	0.257600	0.712000
O601	O60	0.347400	0.202600	0.564200
O611	O61	0.278210	0.906480	0.519600
O621	O62	0.329510	0.821570	0.654900
O631	O63	0.497580	0.157800	0.862600
Gd81	Gd8	0.189700	0.827870	0.377760
C1061	C106	0.902500	0.724100	0.971100
C1071	C107	0.955600	0.758600	0.061200
H431	H43	0.947000	0.780300	0.108200
C1081	C108	0.021500	0.761300	0.082300
C1091	C109	0.034300	0.727700	0.014200
H441	H44	0.079200	0.729900	0.028100
C1101	C110	0.981400	0.691300	0.926700
C1111	C111	0.915200	0.689200	0.904100
H451	H45	0.879000	0.664000	0.843400
C1121	C112	0.953600	0.594700	0.797900
C1131	C113	0.899200	0.610400	0.699100
C1141	C114	0.857700	0.544400	0.638100
H461	H46	0.821100	0.555700	0.570700
C1151	C115	0.869300	0.461700	0.674800
C1161	C116	0.924800	0.446000	0.772500
H471	H47	0.934000	0.389400	0.798000
C1171	C117	0.966700	0.512200	0.833000
H481	H48	0.004800	0.500500	0.899300
C1181	C118	0.829700	0.723400	0.942100
C1191	C119	0.080000	0.797000	0.179500
C1201	C120	0.821500	0.390600	0.611000
N81	N8	0.883200	0.696200	0.656200
O641	O64	0.785900	0.683600	0.864700
O651	O65	0.814560	0.762680	0.995500
O661	O66	0.069010	0.821440	0.244400
O671	O67	0.138550	0.800100	0.195900
O681	O68	0.905600	0.757600	0.712000
O691	O69	0.847400	0.702600	0.564200
O701	O70	0.778210	0.406480	0.519600
O711	O71	0.829510	0.321570	0.654900
O721	O72	0.997580	0.657800	0.862600
