data_ZAVRIZ_clean_PM
_symmetry_space_group_name_H-M	'P1'
_cell_length_a	23.560000
_cell_length_b	15.660000
_cell_length_c	15.991000
_cell_angle_alpha	90.000000
_cell_angle_beta	123.957000
_cell_angle_gamma	90.000000
_symmetry_Int_Tables_number 1

loop_
_symmetry_equiv_pos_as_xyz
'x,y,z'

loop_
_atom_site_label
_atom_site_type_symbol
_atom_site_fract_x
_atom_site_fract_y
_atom_site_fract_z
Tm11	Tm1	0.810770	0.828090	0.625800
C11	C1	0.134800	0.458600	0.328900
C21	C2	0.145900	0.540900	0.365100
H11	H1	0.182500	0.552700	0.432600
C31	C3	0.103800	0.606400	0.303500
C41	C4	0.049900	0.590900	0.205000
C51	C5	0.037400	0.507600	0.169900
H21	H2	0.999200	0.495600	0.103700
C61	C6	0.079400	0.442000	0.229700
H31	H3	0.071000	0.385400	0.204000
C71	C7	0.020000	0.689400	0.075500
C81	C8	0.085300	0.689700	0.095600
H41	H4	0.122200	0.664800	0.156000
C91	C9	0.096500	0.726500	0.027200
C101	C10	0.041300	0.759600	0.936600
H51	H5	0.048200	0.781800	0.887600
C111	C11	0.976700	0.759800	0.918600
C121	C12	0.965500	0.724600	0.988400
H61	H6	0.921100	0.724900	0.975900
C131	C13	0.182000	0.386700	0.392200
C141	C14	0.167500	0.729700	0.051400
C151	C15	0.917400	0.794600	0.820200
N11	N1	0.119000	0.692000	0.346900
O11	O1	0.175800	0.318400	0.347200
O21	O2	0.224100	0.401400	0.485100
O31	O3	0.153600	0.698700	0.439400
O41	O4	0.097000	0.753500	0.290700
O51	O5	0.214800	0.692400	0.129500
O61	O6	0.177600	0.769700	0.992300
O71	O7	0.927500	0.818800	0.754100
O81	O8	0.859400	0.797000	0.805300
O91	O9	0.005200	0.653800	0.141100
Tm21	Tm2	0.310770	0.328090	0.625800
C161	C16	0.634800	0.958600	0.328900
C171	C17	0.645900	0.040900	0.365100
H71	H7	0.682500	0.052700	0.432600
C181	C18	0.603800	0.106400	0.303500
C191	C19	0.549900	0.090900	0.205000
C201	C20	0.537400	0.007600	0.169900
H81	H8	0.499200	0.995600	0.103700
C211	C21	0.579400	0.942000	0.229700
H91	H9	0.571000	0.885400	0.204000
C221	C22	0.520000	0.189400	0.075500
C231	C23	0.585300	0.189700	0.095600
H101	H10	0.622200	0.164800	0.156000
C241	C24	0.596500	0.226500	0.027200
C251	C25	0.541300	0.259600	0.936600
H111	H11	0.548200	0.281800	0.887600
C261	C26	0.476700	0.259800	0.918600
C271	C27	0.465500	0.224600	0.988400
H121	H12	0.421100	0.224900	0.975900
C281	C28	0.682000	0.886700	0.392200
C291	C29	0.667500	0.229700	0.051400
C301	C30	0.417400	0.294600	0.820200
N21	N2	0.619000	0.192000	0.346900
O101	O10	0.675800	0.818400	0.347200
O111	O11	0.724100	0.901400	0.485100
O121	O12	0.653600	0.198700	0.439400
O131	O13	0.597000	0.253500	0.290700
O141	O14	0.714800	0.192400	0.129500
O151	O15	0.677600	0.269700	0.992300
O161	O16	0.427500	0.318800	0.754100
O171	O17	0.359400	0.297000	0.805300
O181	O18	0.505200	0.153800	0.141100
Tm31	Tm3	0.189230	0.828090	0.874200
C311	C31	0.865200	0.458600	0.171100
C321	C32	0.854100	0.540900	0.134900
H131	H13	0.817500	0.552700	0.067400
C331	C33	0.896200	0.606400	0.196500
C341	C34	0.950100	0.590900	0.295000
C351	C35	0.962600	0.507600	0.330100
H141	H14	0.000800	0.495600	0.396300
C361	C36	0.920600	0.442000	0.270300
H151	H15	0.929000	0.385400	0.296000
C371	C37	0.980000	0.689400	0.424500
C381	C38	0.914700	0.689700	0.404400
H161	H16	0.877800	0.664800	0.344000
C391	C39	0.903500	0.726500	0.472800
C401	C40	0.958700	0.759600	0.563400
H171	H17	0.951800	0.781800	0.612400
C411	C41	0.023300	0.759800	0.581400
C421	C42	0.034500	0.724600	0.511600
H181	H18	0.078900	0.724900	0.524100
C431	C43	0.818000	0.386700	0.107800
C441	C44	0.832500	0.729700	0.448600
C451	C45	0.082600	0.794600	0.679800
N31	N3	0.881000	0.692000	0.153100
O191	O19	0.824200	0.318400	0.152800
O201	O20	0.775900	0.401400	0.014900
O211	O21	0.846400	0.698700	0.060600
O221	O22	0.903000	0.753500	0.209300
O231	O23	0.785200	0.692400	0.370500
O241	O24	0.822400	0.769700	0.507700
O251	O25	0.072500	0.818800	0.745900
O261	O26	0.140600	0.797000	0.694700
O271	O27	0.994800	0.653800	0.358900
Tm41	Tm4	0.689230	0.328090	0.874200
C461	C46	0.365200	0.958600	0.171100
C471	C47	0.354100	0.040900	0.134900
H191	H19	0.317500	0.052700	0.067400
C481	C48	0.396200	0.106400	0.196500
C491	C49	0.450100	0.090900	0.295000
C501	C50	0.462600	0.007600	0.330100
H201	H20	0.500800	0.995600	0.396300
C511	C51	0.420600	0.942000	0.270300
H211	H21	0.429000	0.885400	0.296000
C521	C52	0.480000	0.189400	0.424500
C531	C53	0.414700	0.189700	0.404400
H221	H22	0.377800	0.164800	0.344000
C541	C54	0.403500	0.226500	0.472800
C551	C55	0.458700	0.259600	0.563400
H231	H23	0.451800	0.281800	0.612400
C561	C56	0.523300	0.259800	0.581400
C571	C57	0.534500	0.224600	0.511600
H241	H24	0.578900	0.224900	0.524100
C581	C58	0.318000	0.886700	0.107800
C591	C59	0.332500	0.229700	0.448600
C601	C60	0.582600	0.294600	0.679800
N41	N4	0.381000	0.192000	0.153100
O281	O28	0.324200	0.818400	0.152800
O291	O29	0.275900	0.901400	0.014900
O301	O30	0.346400	0.198700	0.060600
O311	O31	0.403000	0.253500	0.209300
O321	O32	0.285200	0.192400	0.370500
O331	O33	0.322400	0.269700	0.507700
O341	O34	0.572500	0.318800	0.745900
O351	O35	0.640600	0.297000	0.694700
O361	O36	0.494800	0.153800	0.358900
Tm51	Tm5	0.189230	0.171910	0.374200
C611	C61	0.865200	0.541400	0.671100
C621	C62	0.854100	0.459100	0.634900
H251	H25	0.817500	0.447300	0.567400
C631	C63	0.896200	0.393600	0.696500
C641	C64	0.950100	0.409100	0.795000
C651	C65	0.962600	0.492400	0.830100
H261	H26	0.000800	0.504400	0.896300
C661	C66	0.920600	0.558000	0.770300
H271	H27	0.929000	0.614600	0.796000
C671	C67	0.980000	0.310600	0.924500
C681	C68	0.914700	0.310300	0.904400
H281	H28	0.877800	0.335200	0.844000
C691	C69	0.903500	0.273500	0.972800
C701	C70	0.958700	0.240400	0.063400
H291	H29	0.951800	0.218200	0.112400
C711	C71	0.023300	0.240200	0.081400
C721	C72	0.034500	0.275400	0.011600
H301	H30	0.078900	0.275100	0.024100
C731	C73	0.818000	0.613300	0.607800
C741	C74	0.832500	0.270300	0.948600
C751	C75	0.082600	0.205400	0.179800
N51	N5	0.881000	0.308000	0.653100
O371	O37	0.824200	0.681600	0.652800
O381	O38	0.775900	0.598600	0.514900
O391	O39	0.846400	0.301300	0.560600
O401	O40	0.903000	0.246500	0.709300
O411	O41	0.785200	0.307600	0.870500
O421	O42	0.822400	0.230300	0.007700
O431	O43	0.072500	0.181200	0.245900
O441	O44	0.140600	0.203000	0.194700
O451	O45	0.994800	0.346200	0.858900
Tm61	Tm6	0.689230	0.671910	0.374200
C761	C76	0.365200	0.041400	0.671100
C771	C77	0.354100	0.959100	0.634900
H311	H31	0.317500	0.947300	0.567400
C781	C78	0.396200	0.893600	0.696500
C791	C79	0.450100	0.909100	0.795000
C801	C80	0.462600	0.992400	0.830100
H321	H32	0.500800	0.004400	0.896300
C811	C81	0.420600	0.058000	0.770300
H331	H33	0.429000	0.114600	0.796000
C821	C82	0.480000	0.810600	0.924500
C831	C83	0.414700	0.810300	0.904400
H341	H34	0.377800	0.835200	0.844000
C841	C84	0.403500	0.773500	0.972800
C851	C85	0.458700	0.740400	0.063400
H351	H35	0.451800	0.718200	0.112400
C861	C86	0.523300	0.740200	0.081400
C871	C87	0.534500	0.775400	0.011600
H361	H36	0.578900	0.775100	0.024100
C881	C88	0.318000	0.113300	0.607800
C891	C89	0.332500	0.770300	0.948600
C901	C90	0.582600	0.705400	0.179800
N61	N6	0.381000	0.808000	0.653100
O461	O46	0.324200	0.181600	0.652800
O471	O47	0.275900	0.098600	0.514900
O481	O48	0.346400	0.801300	0.560600
O491	O49	0.403000	0.746500	0.709300
O501	O50	0.285200	0.807600	0.870500
O511	O51	0.322400	0.730300	0.007700
O521	O52	0.572500	0.681200	0.245900
O531	O53	0.640600	0.703000	0.194700
O541	O54	0.494800	0.846200	0.858900
Tm71	Tm7	0.810770	0.171910	0.125800
C911	C91	0.134800	0.541400	0.828900
C921	C92	0.145900	0.459100	0.865100
H371	H37	0.182500	0.447300	0.932600
C931	C93	0.103800	0.393600	0.803500
C941	C94	0.049900	0.409100	0.705000
C951	C95	0.037400	0.492400	0.669900
H381	H38	0.999200	0.504400	0.603700
C961	C96	0.079400	0.558000	0.729700
H391	H39	0.071000	0.614600	0.704000
C971	C97	0.020000	0.310600	0.575500
C981	C98	0.085300	0.310300	0.595600
H401	H40	0.122200	0.335200	0.656000
C991	C99	0.096500	0.273500	0.527200
C1001	C100	0.041300	0.240400	0.436600
H411	H41	0.048200	0.218200	0.387600
C1011	C101	0.976700	0.240200	0.418600
C1021	C102	0.965500	0.275400	0.488400
H421	H42	0.921100	0.275100	0.475900
C1031	C103	0.182000	0.613300	0.892200
C1041	C104	0.167500	0.270300	0.551400
C1051	C105	0.917400	0.205400	0.320200
N71	N7	0.119000	0.308000	0.846900
O551	O55	0.175800	0.681600	0.847200
O561	O56	0.224100	0.598600	0.985100
O571	O57	0.153600	0.301300	0.939400
O581	O58	0.097000	0.246500	0.790700
O591	O59	0.214800	0.307600	0.629500
O601	O60	0.177600	0.230300	0.492300
O611	O61	0.927500	0.181200	0.254100
O621	O62	0.859400	0.203000	0.305300
O631	O63	0.005200	0.346200	0.641100
Tm81	Tm8	0.310770	0.671910	0.125800
C1061	C106	0.634800	0.041400	0.828900
C1071	C107	0.645900	0.959100	0.865100
H431	H43	0.682500	0.947300	0.932600
C1081	C108	0.603800	0.893600	0.803500
C1091	C109	0.549900	0.909100	0.705000
C1101	C110	0.537400	0.992400	0.669900
H441	H44	0.499200	0.004400	0.603700
C1111	C111	0.579400	0.058000	0.729700
H451	H45	0.571000	0.114600	0.704000
C1121	C112	0.520000	0.810600	0.575500
C1131	C113	0.585300	0.810300	0.595600
H461	H46	0.622200	0.835200	0.656000
C1141	C114	0.596500	0.773500	0.527200
C1151	C115	0.541300	0.740400	0.436600
H471	H47	0.548200	0.718200	0.387600
C1161	C116	0.476700	0.740200	0.418600
C1171	C117	0.465500	0.775400	0.488400
H481	H48	0.421100	0.775100	0.475900
C1181	C118	0.682000	0.113300	0.892200
C1191	C119	0.667500	0.770300	0.551400
C1201	C120	0.417400	0.705400	0.320200
N81	N8	0.619000	0.808000	0.846900
O641	O64	0.675800	0.181600	0.847200
O651	O65	0.724100	0.098600	0.985100
O661	O66	0.653600	0.801300	0.939400
O671	O67	0.597000	0.746500	0.790700
O681	O68	0.714800	0.807600	0.629500
O691	O69	0.677600	0.730300	0.492300
O701	O70	0.427500	0.681200	0.254100
O711	O71	0.359400	0.703000	0.305300
O721	O72	0.505200	0.846200	0.641100
