data_ZAVRAR_clean_PM
_symmetry_space_group_name_H-M	'P1'
_cell_length_a	23.563400
_cell_length_b	15.694000
_cell_length_c	16.040300
_cell_angle_alpha	90.000000
_cell_angle_beta	124.083000
_cell_angle_gamma	90.000000
_symmetry_Int_Tables_number 1

loop_
_symmetry_equiv_pos_as_xyz
'x,y,z'

loop_
_atom_site_label
_atom_site_type_symbol
_atom_site_fract_x
_atom_site_fract_y
_atom_site_fract_z
Ho11	Ho1	0.810810	0.327680	0.624350
C11	C1	0.133000	0.960300	0.327300
C21	C2	0.144500	0.042300	0.364600
H11	H1	0.181000	0.053400	0.432300
C31	C3	0.102800	0.108500	0.303500
C41	C4	0.048500	0.093000	0.204300
C51	C5	0.035500	0.010000	0.169000
H21	H2	0.997300	0.998200	0.102700
C61	C6	0.077700	0.943800	0.229300
H31	H3	0.068900	0.887200	0.203800
C71	C7	0.020000	0.190300	0.075000
C81	C8	0.085600	0.189600	0.096200
H41	H4	0.122300	0.164900	0.156900
C91	C9	0.097200	0.225300	0.028500
C101	C10	0.043000	0.259100	0.937800
H51	H5	0.050600	0.280900	0.889600
C111	C11	0.977500	0.260800	0.918600
C121	C12	0.965800	0.226700	0.988000
H61	H6	0.921400	0.228500	0.975700
C131	C13	0.180800	0.888100	0.391800
C141	C14	0.169000	0.226800	0.054200
C151	C15	0.918300	0.295800	0.820200
N11	N1	0.118400	0.193600	0.346600
O11	O1	0.173600	0.819700	0.346300
O21	O2	0.223160	0.903100	0.483600
O31	O3	0.153400	0.200100	0.439100
O41	O4	0.096300	0.255100	0.290400
O51	O5	0.214940	0.188900	0.132400
O61	O6	0.181530	0.266500	0.998200
O71	O7	0.929200	0.320100	0.755000
O81	O8	0.860150	0.298300	0.804400
O91	O9	0.004400	0.155700	0.140400
Ho21	Ho2	0.310810	0.827680	0.624350
C161	C16	0.633000	0.460300	0.327300
C171	C17	0.644500	0.542300	0.364600
H71	H7	0.681000	0.553400	0.432300
C181	C18	0.602800	0.608500	0.303500
C191	C19	0.548500	0.593000	0.204300
C201	C20	0.535500	0.510000	0.169000
H81	H8	0.497300	0.498200	0.102700
C211	C21	0.577700	0.443800	0.229300
H91	H9	0.568900	0.387200	0.203800
C221	C22	0.520000	0.690300	0.075000
C231	C23	0.585600	0.689600	0.096200
H101	H10	0.622300	0.664900	0.156900
C241	C24	0.597200	0.725300	0.028500
C251	C25	0.543000	0.759100	0.937800
H111	H11	0.550600	0.780900	0.889600
C261	C26	0.477500	0.760800	0.918600
C271	C27	0.465800	0.726700	0.988000
H121	H12	0.421400	0.728500	0.975700
C281	C28	0.680800	0.388100	0.391800
C291	C29	0.669000	0.726800	0.054200
C301	C30	0.418300	0.795800	0.820200
N21	N2	0.618400	0.693600	0.346600
O101	O10	0.673600	0.319700	0.346300
O111	O11	0.723160	0.403100	0.483600
O121	O12	0.653400	0.700100	0.439100
O131	O13	0.596300	0.755100	0.290400
O141	O14	0.714940	0.688900	0.132400
O151	O15	0.681530	0.766500	0.998200
O161	O16	0.429200	0.820100	0.755000
O171	O17	0.360150	0.798300	0.804400
O181	O18	0.504400	0.655700	0.140400
Ho31	Ho3	0.189190	0.327680	0.875650
C311	C31	0.867000	0.960300	0.172700
C321	C32	0.855500	0.042300	0.135400
H131	H13	0.819000	0.053400	0.067700
C331	C33	0.897200	0.108500	0.196500
C341	C34	0.951500	0.093000	0.295700
C351	C35	0.964500	0.010000	0.331000
H141	H14	0.002700	0.998200	0.397300
C361	C36	0.922300	0.943800	0.270700
H151	H15	0.931100	0.887200	0.296200
C371	C37	0.980000	0.190300	0.425000
C381	C38	0.914400	0.189600	0.403800
H161	H16	0.877700	0.164900	0.343100
C391	C39	0.902800	0.225300	0.471500
C401	C40	0.957000	0.259100	0.562200
H171	H17	0.949400	0.280900	0.610400
C411	C41	0.022500	0.260800	0.581400
C421	C42	0.034200	0.226700	0.512000
H181	H18	0.078600	0.228500	0.524300
C431	C43	0.819200	0.888100	0.108200
C441	C44	0.831000	0.226800	0.445800
C451	C45	0.081700	0.295800	0.679800
N31	N3	0.881600	0.193600	0.153400
O191	O19	0.826400	0.819700	0.153700
O201	O20	0.776840	0.903100	0.016400
O211	O21	0.846600	0.200100	0.060900
O221	O22	0.903700	0.255100	0.209600
O231	O23	0.785060	0.188900	0.367600
O241	O24	0.818470	0.266500	0.501800
O251	O25	0.070800	0.320100	0.745000
O261	O26	0.139850	0.298300	0.695600
O271	O27	0.995600	0.155700	0.359600
Ho41	Ho4	0.689190	0.827680	0.875650
C461	C46	0.367000	0.460300	0.172700
C471	C47	0.355500	0.542300	0.135400
H191	H19	0.319000	0.553400	0.067700
C481	C48	0.397200	0.608500	0.196500
C491	C49	0.451500	0.593000	0.295700
C501	C50	0.464500	0.510000	0.331000
H201	H20	0.502700	0.498200	0.397300
C511	C51	0.422300	0.443800	0.270700
H211	H21	0.431100	0.387200	0.296200
C521	C52	0.480000	0.690300	0.425000
C531	C53	0.414400	0.689600	0.403800
H221	H22	0.377700	0.664900	0.343100
C541	C54	0.402800	0.725300	0.471500
C551	C55	0.457000	0.759100	0.562200
H231	H23	0.449400	0.780900	0.610400
C561	C56	0.522500	0.760800	0.581400
C571	C57	0.534200	0.726700	0.512000
H241	H24	0.578600	0.728500	0.524300
C581	C58	0.319200	0.388100	0.108200
C591	C59	0.331000	0.726800	0.445800
C601	C60	0.581700	0.795800	0.679800
N41	N4	0.381600	0.693600	0.153400
O281	O28	0.326400	0.319700	0.153700
O291	O29	0.276840	0.403100	0.016400
O301	O30	0.346600	0.700100	0.060900
O311	O31	0.403700	0.755100	0.209600
O321	O32	0.285060	0.688900	0.367600
O331	O33	0.318470	0.766500	0.501800
O341	O34	0.570800	0.820100	0.745000
O351	O35	0.639850	0.798300	0.695600
O361	O36	0.495600	0.655700	0.359600
Ho51	Ho5	0.189190	0.672320	0.375650
C611	C61	0.867000	0.039700	0.672700
C621	C62	0.855500	0.957700	0.635400
H251	H25	0.819000	0.946600	0.567700
C631	C63	0.897200	0.891500	0.696500
C641	C64	0.951500	0.907000	0.795700
C651	C65	0.964500	0.990000	0.831000
H261	H26	0.002700	0.001800	0.897300
C661	C66	0.922300	0.056200	0.770700
H271	H27	0.931100	0.112800	0.796200
C671	C67	0.980000	0.809700	0.925000
C681	C68	0.914400	0.810400	0.903800
H281	H28	0.877700	0.835100	0.843100
C691	C69	0.902800	0.774700	0.971500
C701	C70	0.957000	0.740900	0.062200
H291	H29	0.949400	0.719100	0.110400
C711	C71	0.022500	0.739200	0.081400
C721	C72	0.034200	0.773300	0.012000
H301	H30	0.078600	0.771500	0.024300
C731	C73	0.819200	0.111900	0.608200
C741	C74	0.831000	0.773200	0.945800
C751	C75	0.081700	0.704200	0.179800
N51	N5	0.881600	0.806400	0.653400
O371	O37	0.826400	0.180300	0.653700
O381	O38	0.776840	0.096900	0.516400
O391	O39	0.846600	0.799900	0.560900
O401	O40	0.903700	0.744900	0.709600
O411	O41	0.785060	0.811100	0.867600
O421	O42	0.818470	0.733500	0.001800
O431	O43	0.070800	0.679900	0.245000
O441	O44	0.139850	0.701700	0.195600
O451	O45	0.995600	0.844300	0.859600
Ho61	Ho6	0.689190	0.172320	0.375650
C761	C76	0.367000	0.539700	0.672700
C771	C77	0.355500	0.457700	0.635400
H311	H31	0.319000	0.446600	0.567700
C781	C78	0.397200	0.391500	0.696500
C791	C79	0.451500	0.407000	0.795700
C801	C80	0.464500	0.490000	0.831000
H321	H32	0.502700	0.501800	0.897300
C811	C81	0.422300	0.556200	0.770700
H331	H33	0.431100	0.612800	0.796200
C821	C82	0.480000	0.309700	0.925000
C831	C83	0.414400	0.310400	0.903800
H341	H34	0.377700	0.335100	0.843100
C841	C84	0.402800	0.274700	0.971500
C851	C85	0.457000	0.240900	0.062200
H351	H35	0.449400	0.219100	0.110400
C861	C86	0.522500	0.239200	0.081400
C871	C87	0.534200	0.273300	0.012000
H361	H36	0.578600	0.271500	0.024300
C881	C88	0.319200	0.611900	0.608200
C891	C89	0.331000	0.273200	0.945800
C901	C90	0.581700	0.204200	0.179800
N61	N6	0.381600	0.306400	0.653400
O461	O46	0.326400	0.680300	0.653700
O471	O47	0.276840	0.596900	0.516400
O481	O48	0.346600	0.299900	0.560900
O491	O49	0.403700	0.244900	0.709600
O501	O50	0.285060	0.311100	0.867600
O511	O51	0.318470	0.233500	0.001800
O521	O52	0.570800	0.179900	0.245000
O531	O53	0.639850	0.201700	0.195600
O541	O54	0.495600	0.344300	0.859600
Ho71	Ho7	0.810810	0.672320	0.124350
C911	C91	0.133000	0.039700	0.827300
C921	C92	0.144500	0.957700	0.864600
H371	H37	0.181000	0.946600	0.932300
C931	C93	0.102800	0.891500	0.803500
C941	C94	0.048500	0.907000	0.704300
C951	C95	0.035500	0.990000	0.669000
H381	H38	0.997300	0.001800	0.602700
C961	C96	0.077700	0.056200	0.729300
H391	H39	0.068900	0.112800	0.703800
C971	C97	0.020000	0.809700	0.575000
C981	C98	0.085600	0.810400	0.596200
H401	H40	0.122300	0.835100	0.656900
C991	C99	0.097200	0.774700	0.528500
C1001	C100	0.043000	0.740900	0.437800
H411	H41	0.050600	0.719100	0.389600
C1011	C101	0.977500	0.739200	0.418600
C1021	C102	0.965800	0.773300	0.488000
H421	H42	0.921400	0.771500	0.475700
C1031	C103	0.180800	0.111900	0.891800
C1041	C104	0.169000	0.773200	0.554200
C1051	C105	0.918300	0.704200	0.320200
N71	N7	0.118400	0.806400	0.846600
O551	O55	0.173600	0.180300	0.846300
O561	O56	0.223160	0.096900	0.983600
O571	O57	0.153400	0.799900	0.939100
O581	O58	0.096300	0.744900	0.790400
O591	O59	0.214940	0.811100	0.632400
O601	O60	0.181530	0.733500	0.498200
O611	O61	0.929200	0.679900	0.255000
O621	O62	0.860150	0.701700	0.304400
O631	O63	0.004400	0.844300	0.640400
Ho81	Ho8	0.310810	0.172320	0.124350
C1061	C106	0.633000	0.539700	0.827300
C1071	C107	0.644500	0.457700	0.864600
H431	H43	0.681000	0.446600	0.932300
C1081	C108	0.602800	0.391500	0.803500
C1091	C109	0.548500	0.407000	0.704300
C1101	C110	0.535500	0.490000	0.669000
H441	H44	0.497300	0.501800	0.602700
C1111	C111	0.577700	0.556200	0.729300
H451	H45	0.568900	0.612800	0.703800
C1121	C112	0.520000	0.309700	0.575000
C1131	C113	0.585600	0.310400	0.596200
H461	H46	0.622300	0.335100	0.656900
C1141	C114	0.597200	0.274700	0.528500
C1151	C115	0.543000	0.240900	0.437800
H471	H47	0.550600	0.219100	0.389600
C1161	C116	0.477500	0.239200	0.418600
C1171	C117	0.465800	0.273300	0.488000
H481	H48	0.421400	0.271500	0.475700
C1181	C118	0.680800	0.611900	0.891800
C1191	C119	0.669000	0.273200	0.554200
C1201	C120	0.418300	0.204200	0.320200
N81	N8	0.618400	0.306400	0.846600
O641	O64	0.673600	0.680300	0.846300
O651	O65	0.723160	0.596900	0.983600
O661	O66	0.653400	0.299900	0.939100
O671	O67	0.596300	0.244900	0.790400
O681	O68	0.714940	0.311100	0.632400
O691	O69	0.681530	0.233500	0.498200
O701	O70	0.429200	0.179900	0.255000
O711	O71	0.360150	0.201700	0.304400
O721	O72	0.504400	0.344300	0.640400
