data_ZAYJOA_charged_PM
_symmetry_space_group_name_H-M	'P1'
_cell_length_a	12.283000
_cell_length_b	21.743000
_cell_length_c	22.757000
_cell_angle_alpha	90.000000
_cell_angle_beta	91.631000
_cell_angle_gamma	90.000000
_symmetry_Int_Tables_number 1

loop_
_symmetry_equiv_pos_as_xyz
'x,y,z'

loop_
_atom_site_label
_atom_site_type_symbol
_atom_site_fract_x
_atom_site_fract_y
_atom_site_fract_z
Ce11	Ce1	0.853230	0.114430	0.916540
Ce21	Ce2	0.366710	0.211260	0.914770
Ce31	Ce3	0.146770	0.614430	0.583460
Ce41	Ce4	0.633290	0.711260	0.585230
Ce51	Ce5	0.146770	0.885570	0.083460
Ce61	Ce6	0.633290	0.788740	0.085230
Ce71	Ce7	0.853230	0.385570	0.416540
Ce81	Ce8	0.366710	0.288740	0.414770
H11	H1	0.876800	0.067700	0.762200
H21	H2	0.795400	0.082100	0.666600
H31	H3	0.542900	0.153600	0.739900
H41	H4	0.364400	0.237200	0.759100
H51	H5	0.273400	0.218100	0.671400
H61	H6	0.016700	0.166800	0.760400
H71	H7	0.123200	0.567700	0.737800
H81	H8	0.204600	0.582100	0.833400
H91	H9	0.457100	0.653600	0.760100
H101	H10	0.635600	0.737200	0.740900
H111	H11	0.726600	0.718100	0.828600
H121	H12	0.983300	0.666800	0.739600
H131	H13	0.123200	0.932300	0.237800
H141	H14	0.204600	0.917900	0.333400
H151	H15	0.457100	0.846400	0.260100
H161	H16	0.635600	0.762800	0.240900
H171	H17	0.726600	0.781900	0.328600
H181	H18	0.983300	0.833200	0.239600
H191	H19	0.876800	0.432300	0.262200
H201	H20	0.795400	0.417900	0.166600
H211	H21	0.542900	0.346400	0.239900
H221	H22	0.364400	0.262800	0.259100
H231	H23	0.273400	0.281900	0.171400
H241	H24	0.016700	0.333200	0.260400
W11	W1	0.683230	0.534140	0.648330
W21	W2	0.758560	0.403290	0.588630
W31	W3	0.940970	0.487210	0.664170
W41	W4	0.006050	0.356920	0.756530
W51	W5	0.803590	0.281470	0.821900
W61	W6	0.826290	0.271340	0.675750
W71	W7	0.547780	0.319480	0.658740
W81	W8	0.529120	0.333420	0.804710
W91	W9	0.467120	0.454320	0.718490
W101	W10	0.656630	0.544800	0.805360
W111	W11	0.920680	0.499030	0.821600
W121	W12	0.721490	0.421140	0.891400
W131	W13	0.316770	0.034140	0.851670
W141	W14	0.241440	0.903290	0.911370
W151	W15	0.059030	0.987210	0.835830
W161	W16	0.993950	0.856920	0.743470
W171	W17	0.196410	0.781470	0.678100
W181	W18	0.173710	0.771340	0.824250
W191	W19	0.452220	0.819480	0.841260
W201	W20	0.470880	0.833420	0.695290
W211	W21	0.532880	0.954320	0.781510
W221	W22	0.343370	0.044800	0.694640
W231	W23	0.079320	0.999030	0.678400
W241	W24	0.278510	0.921140	0.608600
W251	W25	0.316770	0.465860	0.351670
W261	W26	0.241440	0.596710	0.411370
W271	W27	0.059030	0.512790	0.335830
W281	W28	0.993950	0.643080	0.243470
W291	W29	0.196410	0.718530	0.178100
W301	W30	0.173710	0.728660	0.324250
W311	W31	0.452220	0.680520	0.341260
W321	W32	0.470880	0.666580	0.195290
W331	W33	0.532880	0.545680	0.281510
W341	W34	0.343370	0.455200	0.194640
W351	W35	0.079320	0.500970	0.178400
W361	W36	0.278510	0.578860	0.108600
W371	W37	0.683230	0.965860	0.148330
W381	W38	0.758560	0.096710	0.088630
W391	W39	0.940970	0.012790	0.164170
W401	W40	0.006050	0.143080	0.256530
W411	W41	0.803590	0.218530	0.321900
W421	W42	0.826290	0.228660	0.175750
W431	W43	0.547780	0.180520	0.158740
W441	W44	0.529120	0.166580	0.304710
W451	W45	0.467120	0.045680	0.218490
W461	W46	0.656630	0.955200	0.305360
W471	W47	0.920680	0.000970	0.321600
W481	W48	0.721490	0.078860	0.391400
C11	C1	0.807000	0.087800	0.758100
C21	C2	0.760000	0.095000	0.701500
C31	C3	0.616000	0.137700	0.743100
C41	C4	0.661000	0.131200	0.800600
C51	C5	0.605000	0.147800	0.859300
C61	C6	0.294000	0.218300	0.759800
C71	C7	0.238000	0.211000	0.707900
C81	C8	0.091000	0.179900	0.759700
C91	C9	0.149000	0.184900	0.809600
C101	C10	0.114000	0.174100	0.868100
C111	C11	0.193000	0.587800	0.741900
C121	C12	0.240000	0.595000	0.798500
C131	C13	0.384000	0.637700	0.756900
C141	C14	0.339000	0.631200	0.699400
C151	C15	0.395000	0.647800	0.640700
C161	C16	0.706000	0.718300	0.740200
C171	C17	0.762000	0.711000	0.792100
C181	C18	0.909000	0.679900	0.740300
C191	C19	0.851000	0.684900	0.690400
C201	C20	0.886000	0.674100	0.631900
C211	C21	0.193000	0.912200	0.241900
C221	C22	0.240000	0.905000	0.298500
C231	C23	0.384000	0.862300	0.256900
C241	C24	0.339000	0.868800	0.199400
C251	C25	0.395000	0.852200	0.140700
C261	C26	0.706000	0.781700	0.240200
C271	C27	0.762000	0.789000	0.292100
C281	C28	0.909000	0.820100	0.240300
C291	C29	0.851000	0.815100	0.190400
C301	C30	0.886000	0.825900	0.131900
C311	C31	0.807000	0.412200	0.258100
C321	C32	0.760000	0.405000	0.201500
C331	C33	0.616000	0.362300	0.243100
C341	C34	0.661000	0.368800	0.300600
C351	C35	0.605000	0.352200	0.359300
C361	C36	0.294000	0.281700	0.259800
C371	C37	0.238000	0.289000	0.207900
C381	C38	0.091000	0.320100	0.259700
C391	C39	0.149000	0.315100	0.309600
C401	C40	0.114000	0.325900	0.368100
N11	N1	0.258800	0.202000	0.809800
N21	N2	0.136000	0.193000	0.706600
N31	N3	0.760400	0.107000	0.805300
N41	N4	0.658000	0.122600	0.697800
N51	N5	0.741200	0.702000	0.690200
N61	N6	0.864000	0.693000	0.793400
N71	N7	0.239600	0.607000	0.694700
N81	N8	0.342000	0.622600	0.802200
N91	N9	0.741200	0.798000	0.190200
N101	N10	0.864000	0.807000	0.293400
N111	N11	0.239600	0.893000	0.194700
N121	N12	0.342000	0.877400	0.302200
N131	N13	0.258800	0.298000	0.309800
N141	N14	0.136000	0.307000	0.206600
N151	N15	0.760400	0.393000	0.305300
N161	N16	0.658000	0.377400	0.197800
O11	O1	0.773600	0.450000	0.668300
O21	O2	0.822600	0.342600	0.744700
O31	O3	0.601000	0.384700	0.729300
O41	O4	0.757000	0.456400	0.796400
O51	O5	0.140200	0.341500	0.762500
O61	O6	0.819300	0.218600	0.871200
O71	O7	0.855000	0.205000	0.636300
O81	O8	0.466000	0.277100	0.613400
O91	O9	0.433500	0.291900	0.845900
O101	O10	0.339100	0.484400	0.708700
O111	O11	0.607500	0.613000	0.827100
O121	O12	0.020000	0.541800	0.856400
O131	O13	0.706800	0.416900	0.962300
O141	O14	0.693900	0.484300	0.576700
O151	O15	0.839600	0.550800	0.643000
O161	O16	0.549000	0.494600	0.660600
O171	O17	0.683000	0.563500	0.726000
O181	O18	0.901000	0.447200	0.591200
O191	O19	0.621000	0.369100	0.601800
O201	O20	0.828000	0.332000	0.615700
O211	O21	0.004300	0.415400	0.695300
O221	O22	0.943800	0.518700	0.742500
O231	O23	0.959000	0.300200	0.814200
O241	O24	0.968000	0.296500	0.696000
O251	O25	0.982600	0.422300	0.809600
O261	O26	0.814400	0.230300	0.748900
O271	O27	0.656300	0.285000	0.809800
O281	O28	0.793000	0.347700	0.876400
O291	O29	0.671600	0.273400	0.670700
O301	O30	0.497000	0.286800	0.729100
O311	O31	0.444000	0.388900	0.660300
O321	O32	0.427000	0.397500	0.777900
O331	O33	0.589000	0.387600	0.857200
O341	O34	0.531000	0.505200	0.778900
O351	O35	0.807200	0.560400	0.823300
O361	O36	0.648900	0.496300	0.874800
O371	O37	0.851000	0.460200	0.886200
O381	O38	0.514900	0.172300	0.849800
O391	O39	0.654700	0.136000	0.904200
O401	O40	0.769400	0.390300	0.513800
O411	O41	0.917500	0.206700	0.984100
O421	O42	0.001000	0.071000	0.985800
O431	O43	0.764000	0.012500	0.928700
O441	O44	0.050100	0.527000	0.638000
O451	O45	0.009000	0.152400	0.867100
O461	O46	0.487000	0.286900	0.971100
O471	O47	0.248000	0.304700	0.920600
O481	O48	0.303000	0.209600	0.018700
O491	O49	0.502000	0.150300	0.979400
O501	O50	0.166000	0.179800	0.913800
O511	O51	0.651100	0.597900	0.610400
O521	O52	0.226400	0.950000	0.831700
O531	O53	0.177400	0.842600	0.755300
O541	O54	0.399000	0.884700	0.770700
O551	O55	0.243000	0.956400	0.703600
O561	O56	0.859800	0.841500	0.737500
O571	O57	0.180700	0.718600	0.628800
O581	O58	0.145000	0.705000	0.863700
O591	O59	0.534000	0.777100	0.886600
O601	O60	0.566500	0.791900	0.654100
O611	O61	0.660900	0.984400	0.791300
O621	O62	0.392500	0.113000	0.672900
O631	O63	0.980000	0.041800	0.643600
O641	O64	0.293200	0.916900	0.537700
O651	O65	0.306100	0.984300	0.923300
O661	O66	0.160400	0.050800	0.857000
O671	O67	0.451000	0.994600	0.839400
O681	O68	0.317000	0.063500	0.774000
O691	O69	0.099000	0.947200	0.908800
O701	O70	0.379000	0.869100	0.898200
O711	O71	0.172000	0.832000	0.884300
O721	O72	0.995700	0.915400	0.804700
O731	O73	0.056200	0.018700	0.757500
O741	O74	0.041000	0.800200	0.685800
O751	O75	0.032000	0.796500	0.804000
O761	O76	0.017400	0.922300	0.690400
O771	O77	0.185600	0.730300	0.751100
O781	O78	0.343700	0.785000	0.690200
O791	O79	0.207000	0.847700	0.623600
O801	O80	0.328400	0.773400	0.829300
O811	O81	0.503000	0.786800	0.770900
O821	O82	0.556000	0.888900	0.839700
O831	O83	0.573000	0.897500	0.722100
O841	O84	0.411000	0.887600	0.642800
O851	O85	0.469000	0.005200	0.721100
O861	O86	0.192800	0.060400	0.676700
O871	O87	0.351100	0.996300	0.625200
O881	O88	0.149000	0.960200	0.613800
O891	O89	0.485100	0.672300	0.650200
O901	O90	0.345300	0.636000	0.595800
O911	O91	0.230600	0.890300	0.986200
O921	O92	0.082500	0.706700	0.515900
O931	O93	0.999000	0.571000	0.514200
O941	O94	0.236000	0.512500	0.571300
O951	O95	0.949900	0.027000	0.862000
O961	O96	0.991000	0.652400	0.632900
O971	O97	0.513000	0.786900	0.528900
O981	O98	0.752000	0.804700	0.579400
O991	O99	0.697000	0.709600	0.481300
O1001	O100	0.498000	0.650300	0.520600
O1011	O101	0.834000	0.679800	0.586200
O1021	O102	0.348900	0.097900	0.889600
O1031	O103	0.226400	0.550000	0.331700
O1041	O104	0.177400	0.657400	0.255300
O1051	O105	0.399000	0.615300	0.270700
O1061	O106	0.243000	0.543600	0.203600
O1071	O107	0.859800	0.658500	0.237500
O1081	O108	0.180700	0.781400	0.128800
O1091	O109	0.145000	0.795000	0.363700
O1101	O110	0.534000	0.722900	0.386600
O1111	O111	0.566500	0.708100	0.154100
O1121	O112	0.660900	0.515600	0.291300
O1131	O113	0.392500	0.387000	0.172900
O1141	O114	0.980000	0.458200	0.143600
O1151	O115	0.293200	0.583100	0.037700
O1161	O116	0.306100	0.515700	0.423300
O1171	O117	0.160400	0.449200	0.357000
O1181	O118	0.451000	0.505400	0.339400
O1191	O119	0.317000	0.436500	0.274000
O1201	O120	0.099000	0.552800	0.408800
O1211	O121	0.379000	0.630900	0.398200
O1221	O122	0.172000	0.668000	0.384300
O1231	O123	0.995700	0.584600	0.304700
O1241	O124	0.056200	0.481300	0.257500
O1251	O125	0.041000	0.699800	0.185800
O1261	O126	0.032000	0.703500	0.304000
O1271	O127	0.017400	0.577700	0.190400
O1281	O128	0.185600	0.769700	0.251100
O1291	O129	0.343700	0.715000	0.190200
O1301	O130	0.207000	0.652300	0.123600
O1311	O131	0.328400	0.726600	0.329300
O1321	O132	0.503000	0.713200	0.270900
O1331	O133	0.556000	0.611100	0.339700
O1341	O134	0.573000	0.602500	0.222100
O1351	O135	0.411000	0.612400	0.142800
O1361	O136	0.469000	0.494800	0.221100
O1371	O137	0.192800	0.439600	0.176700
O1381	O138	0.351100	0.503700	0.125200
O1391	O139	0.149000	0.539800	0.113800
O1401	O140	0.485100	0.827700	0.150200
O1411	O141	0.345300	0.864000	0.095800
O1421	O142	0.230600	0.609700	0.486200
O1431	O143	0.082500	0.793300	0.015900
O1441	O144	0.999000	0.929000	0.014200
O1451	O145	0.236000	0.987500	0.071300
O1461	O146	0.949900	0.473000	0.362000
O1471	O147	0.991000	0.847600	0.132900
O1481	O148	0.513000	0.713100	0.028900
O1491	O149	0.752000	0.695300	0.079400
O1501	O150	0.697000	0.790400	0.981300
O1511	O151	0.498000	0.849700	0.020600
O1521	O152	0.834000	0.820200	0.086200
O1531	O153	0.348900	0.402100	0.389600
O1541	O154	0.773600	0.050000	0.168300
O1551	O155	0.822600	0.157400	0.244700
O1561	O156	0.601000	0.115300	0.229300
O1571	O157	0.757000	0.043600	0.296400
O1581	O158	0.140200	0.158500	0.262500
O1591	O159	0.819300	0.281400	0.371200
O1601	O160	0.855000	0.295000	0.136300
O1611	O161	0.466000	0.222900	0.113400
O1621	O162	0.433500	0.208100	0.345900
O1631	O163	0.339100	0.015600	0.208700
O1641	O164	0.607500	0.887000	0.327100
O1651	O165	0.020000	0.958200	0.356400
O1661	O166	0.706800	0.083100	0.462300
O1671	O167	0.693900	0.015700	0.076700
O1681	O168	0.839600	0.949200	0.143000
O1691	O169	0.549000	0.005400	0.160600
O1701	O170	0.683000	0.936500	0.226000
O1711	O171	0.901000	0.052800	0.091200
O1721	O172	0.621000	0.130900	0.101800
O1731	O173	0.828000	0.168000	0.115700
O1741	O174	0.004300	0.084600	0.195300
O1751	O175	0.943800	0.981300	0.242500
O1761	O176	0.959000	0.199800	0.314200
O1771	O177	0.968000	0.203500	0.196000
O1781	O178	0.982600	0.077700	0.309600
O1791	O179	0.814400	0.269700	0.248900
O1801	O180	0.656300	0.215000	0.309800
O1811	O181	0.793000	0.152300	0.376400
O1821	O182	0.671600	0.226600	0.170700
O1831	O183	0.497000	0.213200	0.229100
O1841	O184	0.444000	0.111100	0.160300
O1851	O185	0.427000	0.102500	0.277900
O1861	O186	0.589000	0.112400	0.357200
O1871	O187	0.531000	0.994800	0.278900
O1881	O188	0.807200	0.939600	0.323300
O1891	O189	0.648900	0.003700	0.374800
O1901	O190	0.851000	0.039800	0.386200
O1911	O191	0.514900	0.327700	0.349800
O1921	O192	0.654700	0.364000	0.404200
O1931	O193	0.769400	0.109700	0.013800
O1941	O194	0.917500	0.293300	0.484100
O1951	O195	0.001000	0.429000	0.485800
O1961	O196	0.764000	0.487500	0.428700
O1971	O197	0.050100	0.973000	0.138000
O1981	O198	0.009000	0.347600	0.367100
O1991	O199	0.487000	0.213100	0.471100
O2001	O200	0.248000	0.195300	0.420600
O2011	O201	0.303000	0.290400	0.518700
O2021	O202	0.502000	0.349700	0.479400
O2031	O203	0.166000	0.320200	0.413800
O2041	O204	0.651100	0.902100	0.110400
H251	H25	0.992700	0.333800	0.907400
H261	H26	0.025500	0.332000	0.974500
H271	H27	0.103900	0.304400	0.928200
H281	H28	0.994100	0.271100	0.941400
N171	N17	0.029000	0.310300	0.937800
H291	H29	0.185600	0.428200	0.834200
H301	H30	0.280000	0.449900	0.877000
H311	H31	0.300500	0.397000	0.831800
H321	H32	0.226300	0.385300	0.885600
N181	N18	0.248000	0.415100	0.857200
H331	H33	0.007300	0.833800	0.592600
H341	H34	0.974500	0.832000	0.525500
H351	H35	0.896100	0.804400	0.571800
H361	H36	0.005900	0.771100	0.558600
N191	N19	0.971000	0.810300	0.562200
H371	H37	0.814400	0.928200	0.665800
H381	H38	0.720000	0.949900	0.623000
H391	H39	0.699500	0.897000	0.668200
H401	H40	0.773700	0.885300	0.614400
N201	N20	0.752000	0.915100	0.642800
H411	H41	0.007300	0.666200	0.092600
H421	H42	0.974500	0.668000	0.025500
H431	H43	0.896100	0.695600	0.071800
H441	H44	0.005900	0.728900	0.058600
N211	N21	0.971000	0.689700	0.062200
H451	H45	0.814400	0.571800	0.165800
H461	H46	0.720000	0.550100	0.123000
H471	H47	0.699500	0.603000	0.168200
H481	H48	0.773700	0.614700	0.114400
N221	N22	0.752000	0.584900	0.142800
H491	H49	0.992700	0.166200	0.407400
H501	H50	0.025500	0.168000	0.474500
H511	H51	0.103900	0.195600	0.428200
H521	H52	0.994100	0.228900	0.441400
N231	N23	0.029000	0.189700	0.437800
H531	H53	0.185600	0.071800	0.334200
H541	H54	0.280000	0.050100	0.377000
H551	H55	0.300500	0.103000	0.331800
H561	H56	0.226300	0.114700	0.385600
N241	N24	0.248000	0.084900	0.357200
