data_ZAYKAN_charged_PM
_symmetry_space_group_name_H-M	'P1'
_cell_length_a	12.249000
_cell_length_b	21.739000
_cell_length_c	22.722000
_cell_angle_alpha	90.000000
_cell_angle_beta	91.670000
_cell_angle_gamma	90.000000
_symmetry_Int_Tables_number 1

loop_
_symmetry_equiv_pos_as_xyz
'x,y,z'

loop_
_atom_site_label
_atom_site_type_symbol
_atom_site_fract_x
_atom_site_fract_y
_atom_site_fract_z
Nd11	Nd1	0.132550	0.710810	0.586480
Nd21	Nd2	0.647580	0.615660	0.584350
Nd31	Nd3	0.867450	0.210810	0.913520
Nd41	Nd4	0.352420	0.115660	0.915650
Nd51	Nd5	0.867450	0.289190	0.413520
Nd61	Nd6	0.352420	0.384340	0.415650
Nd71	Nd7	0.132550	0.789190	0.086480
Nd81	Nd8	0.647580	0.884340	0.084350
H11	H1	0.486400	0.666200	0.738300
H21	H2	0.225100	0.712000	0.831400
H31	H3	0.129500	0.729200	0.746600
H41	H4	0.956200	0.655900	0.759100
H51	H5	0.702000	0.578400	0.831300
H61	H6	0.612500	0.575300	0.740000
H71	H7	0.513600	0.166200	0.761700
H81	H8	0.774900	0.212000	0.668600
H91	H9	0.870500	0.229200	0.753400
H101	H10	0.043800	0.155900	0.740900
H111	H11	0.298000	0.078400	0.668700
H121	H12	0.387500	0.075300	0.760000
H131	H13	0.513600	0.333800	0.261700
H141	H14	0.774900	0.288000	0.168600
H151	H15	0.870500	0.270800	0.253400
H161	H16	0.043800	0.344100	0.240900
H171	H17	0.298000	0.421600	0.168700
H181	H18	0.387500	0.424700	0.260000
H191	H19	0.486400	0.833800	0.238300
H201	H20	0.225100	0.788000	0.331400
H211	H21	0.129500	0.770800	0.246600
H221	H22	0.956200	0.844100	0.259100
H231	H23	0.702000	0.921600	0.331300
H241	H24	0.612500	0.924700	0.240000
W11	W1	0.816910	0.034630	0.852030
W21	W2	0.672950	0.772510	0.825250
W31	W3	0.494570	0.857010	0.744900
W41	W4	0.035540	0.953780	0.781510
W51	W5	0.778910	0.921260	0.609170
W61	W6	0.844460	0.044620	0.693700
W71	W7	0.954500	0.820240	0.842420
W81	W8	0.581000	0.999190	0.678320
W91	W9	0.974830	0.832790	0.699190
W101	W10	0.739130	0.908480	0.913740
W111	W11	0.692180	0.780320	0.682150
W121	W12	0.562300	0.989570	0.839020
W131	W13	0.183090	0.534630	0.647970
W141	W14	0.327050	0.272510	0.674750
W151	W15	0.505430	0.357010	0.755100
W161	W16	0.964460	0.453780	0.718490
W171	W17	0.221090	0.421260	0.890830
W181	W18	0.155540	0.544620	0.806300
W191	W19	0.045500	0.320240	0.657580
W201	W20	0.419000	0.499190	0.821680
W211	W21	0.025170	0.332790	0.800810
W221	W22	0.260870	0.408480	0.586260
W231	W23	0.307820	0.280320	0.817850
W241	W24	0.437700	0.489570	0.660980
W251	W25	0.183090	0.965370	0.147970
W261	W26	0.327050	0.227490	0.174750
W271	W27	0.505430	0.142990	0.255100
W281	W28	0.964460	0.046220	0.218490
W291	W29	0.221090	0.078740	0.390830
W301	W30	0.155540	0.955380	0.306300
W311	W31	0.045500	0.179760	0.157580
W321	W32	0.419000	0.000810	0.321680
W331	W33	0.025170	0.167210	0.300810
W341	W34	0.260870	0.091520	0.086260
W351	W35	0.307820	0.219680	0.317850
W361	W36	0.437700	0.010430	0.160980
W371	W37	0.816910	0.465370	0.352030
W381	W38	0.672950	0.727490	0.325250
W391	W39	0.494570	0.642990	0.244900
W401	W40	0.035540	0.546220	0.281510
W411	W41	0.778910	0.578740	0.109170
W421	W42	0.844460	0.455380	0.193700
W431	W43	0.954500	0.679760	0.342420
W441	W44	0.581000	0.500810	0.178320
W451	W45	0.974830	0.667210	0.199190
W461	W46	0.739130	0.591520	0.413740
W471	W47	0.692180	0.719680	0.182150
W481	W48	0.562300	0.510430	0.339020
C11	C1	0.392000	0.672300	0.628000
C21	C2	0.350000	0.686400	0.688500
C31	C3	0.412000	0.679200	0.740400
C41	C4	0.260000	0.708500	0.794200
C51	C5	0.202000	0.713500	0.743000
C61	C6	0.895500	0.649000	0.644900
C71	C7	0.836700	0.630600	0.700400
C81	C8	0.885000	0.637500	0.756200
C91	C9	0.736000	0.595400	0.797300
C101	C10	0.686600	0.589600	0.742800
C111	C11	0.608000	0.172300	0.872000
C121	C12	0.650000	0.186400	0.811500
C131	C13	0.588000	0.179200	0.759600
C141	C14	0.740000	0.208500	0.705800
C151	C15	0.798000	0.213500	0.757000
C161	C16	0.104500	0.149000	0.855100
C171	C17	0.163300	0.130600	0.799600
C181	C18	0.115000	0.137500	0.743800
C191	C19	0.264000	0.095400	0.702700
C201	C20	0.313400	0.089600	0.757200
C211	C21	0.608000	0.327700	0.372000
C221	C22	0.650000	0.313600	0.311500
C231	C23	0.588000	0.320800	0.259600
C241	C24	0.740000	0.291500	0.205800
C251	C25	0.798000	0.286500	0.257000
C261	C26	0.104500	0.351000	0.355100
C271	C27	0.163300	0.369400	0.299600
C281	C28	0.115000	0.362500	0.243800
C291	C29	0.264000	0.404600	0.202700
C301	C30	0.313400	0.410400	0.257200
C311	C31	0.392000	0.827700	0.128000
C321	C32	0.350000	0.813600	0.188500
C331	C33	0.412000	0.820800	0.240400
C341	C34	0.260000	0.791500	0.294200
C351	C35	0.202000	0.786500	0.243000
C361	C36	0.895500	0.851000	0.144900
C371	C37	0.836700	0.869400	0.200400
C381	C38	0.885000	0.862500	0.256200
C391	C39	0.736000	0.904600	0.297300
C401	C40	0.686600	0.910400	0.242800
N11	N1	0.734900	0.608000	0.693200
N21	N2	0.836900	0.621300	0.802500
N31	N3	0.242800	0.702000	0.689600
N41	N4	0.367200	0.690900	0.791400
N51	N5	0.265100	0.108000	0.806800
N61	N6	0.163100	0.121300	0.697500
N71	N7	0.757200	0.202000	0.810400
N81	N8	0.632800	0.190900	0.708600
N91	N9	0.265100	0.392000	0.306800
N101	N10	0.163100	0.378700	0.197500
N111	N11	0.757200	0.298000	0.310400
N121	N12	0.632800	0.309100	0.208600
N131	N13	0.734900	0.892000	0.193200
N141	N14	0.836900	0.878700	0.302500
N151	N15	0.242800	0.798000	0.189600
N161	N16	0.367200	0.809100	0.291400
O11	O1	0.073300	0.896100	0.721800
O21	O2	0.797200	0.914900	0.537200
O31	O3	0.062200	0.791800	0.655000
O41	O4	0.358600	0.844300	0.736600
O51	O5	0.451100	0.028900	0.861600
O61	O6	0.732000	0.890900	0.986700
O71	O7	0.162600	0.985100	0.791000
O81	O8	0.479100	0.039500	0.643300
O91	O9	0.680500	0.719400	0.631400
O101	O10	0.669800	0.835100	0.883300
O111	O11	0.950900	0.996900	0.836200
O121	O12	0.677100	0.842900	0.755000
O131	O13	0.845800	0.784400	0.693700
O141	O14	0.031200	0.777000	0.888900
O151	O15	0.812500	0.060700	0.773900
O161	O16	0.853200	0.999100	0.622600
O171	O17	0.728100	0.952400	0.831600
O181	O18	0.876800	0.870600	0.896000
O191	O19	0.969000	0.002000	0.722900
O201	O20	0.744800	0.956000	0.704000
O211	O21	0.908700	0.885000	0.643900
O221	O22	0.593100	0.947700	0.911700
O231	O23	0.560000	0.018700	0.757600
O241	O24	0.706400	0.847500	0.629100
O251	O25	0.525100	0.792400	0.805200
O261	O26	0.006800	0.789800	0.770700
O271	O27	0.681600	0.729700	0.750000
O281	O28	0.825100	0.772600	0.832400
O291	O29	0.644100	0.962700	0.609700
O301	O30	0.061000	0.888700	0.840600
O311	O31	0.852600	0.100400	0.889400
O321	O32	0.898800	0.882800	0.772100
O331	O33	0.808300	0.987500	0.925900
O341	O34	0.541100	0.800400	0.685700
O351	O35	0.519800	0.921800	0.691900
O361	O36	0.499500	0.916200	0.807000
O371	O37	0.663700	0.054700	0.857900
O381	O38	0.693000	0.061200	0.674600
O391	O39	0.898000	0.114000	0.671900
O401	O40	0.643200	0.707800	0.865300
O411	O41	0.010000	0.782600	0.532000
O421	O42	0.198700	0.707200	0.483800
O431	O43	0.001900	0.650300	0.519300
O441	O44	0.249200	0.804600	0.579800
O451	O45	0.987000	0.672400	0.650000
O461	O46	0.330200	0.680700	0.584800
O471	O47	0.488300	0.655800	0.628200
O481	O48	0.844300	0.637600	0.596000
O491	O49	0.510400	0.569400	0.516500
O501	O50	0.587300	0.704400	0.516700
O511	O51	0.740500	0.515400	0.578500
O521	O52	0.926700	0.396100	0.778200
O531	O53	0.202800	0.414900	0.962800
O541	O54	0.937800	0.291800	0.845000
O551	O55	0.641400	0.344300	0.763400
O561	O56	0.548900	0.528900	0.638400
O571	O57	0.268000	0.390900	0.513300
O581	O58	0.837400	0.485100	0.709000
O591	O59	0.520900	0.539500	0.856700
O601	O60	0.319500	0.219400	0.868600
O611	O61	0.330200	0.335100	0.616700
O621	O62	0.049100	0.496900	0.663800
O631	O63	0.322900	0.342900	0.745000
O641	O64	0.154200	0.284400	0.806300
O651	O65	0.968800	0.277000	0.611100
O661	O66	0.187500	0.560700	0.726100
O671	O67	0.146800	0.499100	0.877400
O681	O68	0.271900	0.452400	0.668400
O691	O69	0.123200	0.370600	0.604000
O701	O70	0.031000	0.502000	0.777100
O711	O71	0.255200	0.456000	0.796000
O721	O72	0.091300	0.385000	0.856100
O731	O73	0.406900	0.447700	0.588300
O741	O74	0.440000	0.518700	0.742400
O751	O75	0.293600	0.347500	0.870900
O761	O76	0.474900	0.292400	0.694800
O771	O77	0.993200	0.289800	0.729300
O781	O78	0.318400	0.229700	0.750000
O791	O79	0.174900	0.272600	0.667600
O801	O80	0.355900	0.462700	0.890300
O811	O81	0.939000	0.388700	0.659400
O821	O82	0.147400	0.600400	0.610600
O831	O83	0.101200	0.382800	0.727900
O841	O84	0.191700	0.487500	0.574100
O851	O85	0.458900	0.300400	0.814300
O861	O86	0.480200	0.421800	0.808100
O871	O87	0.500500	0.416200	0.693000
O881	O88	0.336300	0.554700	0.642100
O891	O89	0.307000	0.561200	0.825400
O901	O90	0.102000	0.614000	0.828100
O911	O91	0.356800	0.207800	0.634700
O921	O92	0.990000	0.282600	0.968000
O931	O93	0.801300	0.207200	0.016200
O941	O94	0.998100	0.150300	0.980700
O951	O95	0.750800	0.304600	0.920200
O961	O96	0.013000	0.172400	0.850000
O971	O97	0.669800	0.180700	0.915200
O981	O98	0.511700	0.155800	0.871800
O991	O99	0.155700	0.137600	0.904000
O1001	O100	0.489600	0.069400	0.983500
O1011	O101	0.412700	0.204400	0.983300
O1021	O102	0.259500	0.015400	0.921500
O1031	O103	0.926700	0.103900	0.278200
O1041	O104	0.202800	0.085100	0.462800
O1051	O105	0.937800	0.208200	0.345000
O1061	O106	0.641400	0.155700	0.263400
O1071	O107	0.548900	0.971100	0.138400
O1081	O108	0.268000	0.109100	0.013300
O1091	O109	0.837400	0.014900	0.209000
O1101	O110	0.520900	0.960500	0.356700
O1111	O111	0.319500	0.280600	0.368600
O1121	O112	0.330200	0.164900	0.116700
O1131	O113	0.049100	0.003100	0.163800
O1141	O114	0.322900	0.157100	0.245000
O1151	O115	0.154200	0.215600	0.306300
O1161	O116	0.968800	0.223000	0.111100
O1171	O117	0.187500	0.939300	0.226100
O1181	O118	0.146800	0.000900	0.377400
O1191	O119	0.271900	0.047600	0.168400
O1201	O120	0.123200	0.129400	0.104000
O1211	O121	0.031000	0.998000	0.277100
O1221	O122	0.255200	0.044000	0.296000
O1231	O123	0.091300	0.115000	0.356100
O1241	O124	0.406900	0.052300	0.088300
O1251	O125	0.440000	0.981300	0.242400
O1261	O126	0.293600	0.152500	0.370900
O1271	O127	0.474900	0.207600	0.194800
O1281	O128	0.993200	0.210200	0.229300
O1291	O129	0.318400	0.270300	0.250000
O1301	O130	0.174900	0.227400	0.167600
O1311	O131	0.355900	0.037300	0.390300
O1321	O132	0.939000	0.111300	0.159400
O1331	O133	0.147400	0.899600	0.110600
O1341	O134	0.101200	0.117200	0.227900
O1351	O135	0.191700	0.012500	0.074100
O1361	O136	0.458900	0.199600	0.314300
O1371	O137	0.480200	0.078200	0.308100
O1381	O138	0.500500	0.083800	0.193000
O1391	O139	0.336300	0.945300	0.142100
O1401	O140	0.307000	0.938800	0.325400
O1411	O141	0.102000	0.886000	0.328100
O1421	O142	0.356800	0.292200	0.134700
O1431	O143	0.990000	0.217400	0.468000
O1441	O144	0.801300	0.292800	0.516200
O1451	O145	0.998100	0.349700	0.480700
O1461	O146	0.750800	0.195400	0.420200
O1471	O147	0.013000	0.327600	0.350000
O1481	O148	0.669800	0.319300	0.415200
O1491	O149	0.511700	0.344200	0.371800
O1501	O150	0.155700	0.362400	0.404000
O1511	O151	0.489600	0.430600	0.483500
O1521	O152	0.412700	0.295600	0.483300
O1531	O153	0.259500	0.484600	0.421500
O1541	O154	0.073300	0.603900	0.221800
O1551	O155	0.797200	0.585100	0.037200
O1561	O156	0.062200	0.708200	0.155000
O1571	O157	0.358600	0.655700	0.236600
O1581	O158	0.451100	0.471100	0.361600
O1591	O159	0.732000	0.609100	0.486700
O1601	O160	0.162600	0.514900	0.291000
O1611	O161	0.479100	0.460500	0.143300
O1621	O162	0.680500	0.780600	0.131400
O1631	O163	0.669800	0.664900	0.383300
O1641	O164	0.950900	0.503100	0.336200
O1651	O165	0.677100	0.657100	0.255000
O1661	O166	0.845800	0.715600	0.193700
O1671	O167	0.031200	0.723000	0.388900
O1681	O168	0.812500	0.439300	0.273900
O1691	O169	0.853200	0.500900	0.122600
O1701	O170	0.728100	0.547600	0.331600
O1711	O171	0.876800	0.629400	0.396000
O1721	O172	0.969000	0.498000	0.222900
O1731	O173	0.744800	0.544000	0.204000
O1741	O174	0.908700	0.615000	0.143900
O1751	O175	0.593100	0.552300	0.411700
O1761	O176	0.560000	0.481300	0.257600
O1771	O177	0.706400	0.652500	0.129100
O1781	O178	0.525100	0.707600	0.305200
O1791	O179	0.006800	0.710200	0.270700
O1801	O180	0.681600	0.770300	0.250000
O1811	O181	0.825100	0.727400	0.332400
O1821	O182	0.644100	0.537300	0.109700
O1831	O183	0.061000	0.611300	0.340600
O1841	O184	0.852600	0.399600	0.389400
O1851	O185	0.898800	0.617200	0.272100
O1861	O186	0.808300	0.512500	0.425900
O1871	O187	0.541100	0.699600	0.185700
O1881	O188	0.519800	0.578200	0.191900
O1891	O189	0.499500	0.583800	0.307000
O1901	O190	0.663700	0.445300	0.357900
O1911	O191	0.693000	0.438800	0.174600
O1921	O192	0.898000	0.386000	0.171900
O1931	O193	0.643200	0.792200	0.365300
O1941	O194	0.010000	0.717400	0.032000
O1951	O195	0.198700	0.792800	0.983800
O1961	O196	0.001900	0.849700	0.019300
O1971	O197	0.249200	0.695400	0.079800
O1981	O198	0.987000	0.827600	0.150000
O1991	O199	0.330200	0.819300	0.084800
O2001	O200	0.488300	0.844200	0.128200
O2011	O201	0.844300	0.862400	0.096000
O2021	O202	0.510400	0.930600	0.016500
O2031	O203	0.587300	0.795600	0.016700
O2041	O204	0.740500	0.984600	0.078500
H251	H25	0.832700	0.666400	0.909400
H261	H26	0.958600	0.669300	0.923400
H271	H27	0.912300	0.622700	0.876300
H281	H28	0.890700	0.612200	0.943200
N171	N17	0.899000	0.642600	0.913100
H291	H29	0.273100	0.607300	0.530400
H301	H30	0.378000	0.588900	0.496700
H311	H31	0.262300	0.570200	0.471400
H321	H32	0.310100	0.538300	0.528400
N181	N18	0.306000	0.576000	0.506700
H331	H33	0.167300	0.166400	0.590600
H341	H34	0.041400	0.169300	0.576600
H351	H35	0.087700	0.122700	0.623700
H361	H36	0.109300	0.112200	0.556800
N191	N19	0.101000	0.142600	0.586900
H371	H37	0.726900	0.107300	0.969600
H381	H38	0.622000	0.088900	0.003300
H391	H39	0.737700	0.070200	0.028600
H401	H40	0.689900	0.038300	0.971600
N201	N20	0.694000	0.076000	0.993300
H411	H41	0.167300	0.333600	0.090600
H421	H42	0.041400	0.330700	0.076600
H431	H43	0.087700	0.377300	0.123700
H441	H44	0.109300	0.387800	0.056800
N211	N21	0.101000	0.357400	0.086900
H451	H45	0.726900	0.392700	0.469600
H461	H46	0.622000	0.411100	0.503300
H471	H47	0.737700	0.429800	0.528600
H481	H48	0.689900	0.461700	0.471600
N221	N22	0.694000	0.424000	0.493300
H491	H49	0.832700	0.833600	0.409400
H501	H50	0.958600	0.830700	0.423400
H511	H51	0.912300	0.877300	0.376300
H521	H52	0.890700	0.887800	0.443200
N231	N23	0.899000	0.857400	0.413100
H531	H53	0.273100	0.892700	0.030400
H541	H54	0.378000	0.911100	0.996700
H551	H55	0.262300	0.929800	0.971400
H561	H56	0.310100	0.961700	0.028400
N241	N24	0.306000	0.924000	0.006700
