data_ZAZBUZ_clean_PM
_symmetry_space_group_name_H-M	'P1'
_cell_length_a	6.605000
_cell_length_b	10.447800
_cell_length_c	11.088100
_cell_angle_alpha	62.064000
_cell_angle_beta	73.410000
_cell_angle_gamma	78.404000
_symmetry_Int_Tables_number 1

loop_
_symmetry_equiv_pos_as_xyz
'x,y,z'

loop_
_atom_site_label
_atom_site_type_symbol
_atom_site_fract_x
_atom_site_fract_y
_atom_site_fract_z
Cu11	Cu1	0.000000	0.000000	0.500000
Cu21	Cu2	0.500000	0.000000	0.500000
H11	H1	0.586700	0.731000	0.442900
H21	H2	0.146200	0.445300	0.577600
H31	H3	0.347800	0.046500	0.872800
H41	H4	0.763800	0.950300	0.908300
H51	H5	0.413300	0.269000	0.557100
H61	H6	0.853800	0.554700	0.422400
H71	H7	0.652200	0.953500	0.127200
H81	H8	0.236200	0.049700	0.091700
C11	C1	0.136300	0.996100	0.728900
C21	C2	0.164700	0.717700	0.526000
C31	C3	0.551400	0.637100	0.466300
C41	C4	0.065500	0.998700	0.869700
C51	C5	0.340200	0.605400	0.513200
C61	C6	0.290100	0.467400	0.546300
C71	C7	0.206300	0.027700	0.924400
C81	C8	0.860000	0.970700	0.945300
C91	C9	0.863700	0.003900	0.271100
C101	C10	0.835300	0.282300	0.474000
C111	C11	0.448600	0.362900	0.533700
C121	C12	0.934500	0.001300	0.130300
C131	C13	0.659800	0.394600	0.486800
C141	C14	0.709900	0.532600	0.453700
C151	C15	0.793700	0.972300	0.075600
C161	C16	0.140000	0.029300	0.054700
O11	O1	0.329200	0.012500	0.669800
O21	O2	0.213000	0.832400	0.520700
O31	O3	0.997700	0.978000	0.684100
O41	O4	0.981100	0.691900	0.540500
O51	O5	0.670800	0.987500	0.330200
O61	O6	0.787000	0.167600	0.479300
O71	O7	0.002300	0.022000	0.315900
O81	O8	0.018900	0.308100	0.459500
