data_ZAZNUL_clean_PM
_symmetry_space_group_name_H-M	'P1'
_cell_length_a	51.363000
_cell_length_b	51.363000
_cell_length_c	51.363000
_cell_angle_alpha	90.000000
_cell_angle_beta	90.000000
_cell_angle_gamma	90.000000
_symmetry_Int_Tables_number 1

loop_
_symmetry_equiv_pos_as_xyz
'x,y,z'

loop_
_atom_site_label
_atom_site_type_symbol
_atom_site_fract_x
_atom_site_fract_y
_atom_site_fract_z
Al11	Al1	0.133800	0.329900	0.280500
Al21	Al2	0.038400	0.355800	0.311200
Al31	Al3	0.095300	0.361600	0.222400
P11	P1	0.088800	0.370400	0.281100
P21	P2	0.134700	0.316200	0.220800
P31	P3	0.046000	0.351700	0.188300
O11	O1	0.080900	0.373900	0.250400
O21	O2	0.114100	0.387300	0.287000
O31	O3	0.101700	0.340900	0.281300
O41	O4	0.065900	0.371200	0.298800
O51	O5	0.135100	0.309300	0.253200
O61	O6	0.134600	0.297100	0.199600
O71	O7	0.157300	0.336500	0.218100
O81	O8	0.028300	0.336800	0.285900
O91	O9	0.055400	0.330400	0.167800
O101	O10	0.026600	0.382000	0.330000
O111	O11	0.106500	0.329500	0.217100
O121	O12	0.073400	0.366100	0.199600
O131	O13	0.030500	0.341300	0.211700
O141	O14	0.027900	0.372500	0.178300
Al41	Al4	0.133800	0.829900	0.780500
Al51	Al5	0.038400	0.855800	0.811200
Al61	Al6	0.095300	0.861600	0.722400
P41	P4	0.088800	0.870400	0.781100
P51	P5	0.134700	0.816200	0.720800
P61	P6	0.046000	0.851700	0.688300
O151	O15	0.080900	0.873900	0.750400
O161	O16	0.114100	0.887300	0.787000
O171	O17	0.101700	0.840900	0.781300
O181	O18	0.065900	0.871200	0.798800
O191	O19	0.135100	0.809300	0.753200
O201	O20	0.134600	0.797100	0.699600
O211	O21	0.157300	0.836500	0.718100
O221	O22	0.028300	0.836800	0.785900
O231	O23	0.055400	0.830400	0.667800
O241	O24	0.026600	0.882000	0.830000
O251	O25	0.106500	0.829500	0.717100
O261	O26	0.073400	0.866100	0.699600
O271	O27	0.030500	0.841300	0.711700
O281	O28	0.027900	0.872500	0.678300
Al71	Al7	0.633800	0.329900	0.780500
Al81	Al8	0.538400	0.355800	0.811200
Al91	Al9	0.595300	0.361600	0.722400
P71	P7	0.588800	0.370400	0.781100
P81	P8	0.634700	0.316200	0.720800
P91	P9	0.546000	0.351700	0.688300
O291	O29	0.580900	0.373900	0.750400
O301	O30	0.614100	0.387300	0.787000
O311	O31	0.601700	0.340900	0.781300
O321	O32	0.565900	0.371200	0.798800
O331	O33	0.635100	0.309300	0.753200
O341	O34	0.634600	0.297100	0.699600
O351	O35	0.657300	0.336500	0.718100
O361	O36	0.528300	0.336800	0.785900
O371	O37	0.555400	0.330400	0.667800
O381	O38	0.526600	0.382000	0.830000
O391	O39	0.606500	0.329500	0.717100
O401	O40	0.573400	0.366100	0.699600
O411	O41	0.530500	0.341300	0.711700
O421	O42	0.527900	0.372500	0.678300
Al101	Al10	0.633800	0.829900	0.280500
Al111	Al11	0.538400	0.855800	0.311200
Al121	Al12	0.595300	0.861600	0.222400
P101	P10	0.588800	0.870400	0.281100
P111	P11	0.634700	0.816200	0.220800
P121	P12	0.546000	0.851700	0.188300
O431	O43	0.580900	0.873900	0.250400
O441	O44	0.614100	0.887300	0.287000
O451	O45	0.601700	0.840900	0.281300
O461	O46	0.565900	0.871200	0.298800
O471	O47	0.635100	0.809300	0.253200
O481	O48	0.634600	0.797100	0.199600
O491	O49	0.657300	0.836500	0.218100
O501	O50	0.528300	0.836800	0.285900
O511	O51	0.555400	0.830400	0.167800
O521	O52	0.526600	0.882000	0.330000
O531	O53	0.606500	0.829500	0.217100
O541	O54	0.573400	0.866100	0.199600
O551	O55	0.530500	0.841300	0.211700
O561	O56	0.527900	0.872500	0.178300
Al131	Al13	0.866200	0.670100	0.280500
Al141	Al14	0.961600	0.644200	0.311200
Al151	Al15	0.904700	0.638400	0.222400
P131	P13	0.911200	0.629600	0.281100
P141	P14	0.865300	0.683800	0.220800
P151	P15	0.954000	0.648300	0.188300
O571	O57	0.919100	0.626100	0.250400
O581	O58	0.885900	0.612700	0.287000
O591	O59	0.898300	0.659100	0.281300
O601	O60	0.934100	0.628800	0.298800
O611	O61	0.864900	0.690700	0.253200
O621	O62	0.865400	0.702900	0.199600
O631	O63	0.842700	0.663500	0.218100
O641	O64	0.971700	0.663200	0.285900
O651	O65	0.944600	0.669600	0.167800
O661	O66	0.973400	0.618000	0.330000
O671	O67	0.893500	0.670500	0.217100
O681	O68	0.926600	0.633900	0.199600
O691	O69	0.969500	0.658700	0.211700
O701	O70	0.972100	0.627500	0.178300
Al161	Al16	0.866200	0.170100	0.780500
Al171	Al17	0.961600	0.144200	0.811200
Al181	Al18	0.904700	0.138400	0.722400
P161	P16	0.911200	0.129600	0.781100
P171	P17	0.865300	0.183800	0.720800
P181	P18	0.954000	0.148300	0.688300
O711	O71	0.919100	0.126100	0.750400
O721	O72	0.885900	0.112700	0.787000
O731	O73	0.898300	0.159100	0.781300
O741	O74	0.934100	0.128800	0.798800
O751	O75	0.864900	0.190700	0.753200
O761	O76	0.865400	0.202900	0.699600
O771	O77	0.842700	0.163500	0.718100
O781	O78	0.971700	0.163200	0.785900
O791	O79	0.944600	0.169600	0.667800
O801	O80	0.973400	0.118000	0.830000
O811	O81	0.893500	0.170500	0.717100
O821	O82	0.926600	0.133900	0.699600
O831	O83	0.969500	0.158700	0.711700
O841	O84	0.972100	0.127500	0.678300
Al191	Al19	0.366200	0.670100	0.780500
Al201	Al20	0.461600	0.644200	0.811200
Al211	Al21	0.404700	0.638400	0.722400
P191	P19	0.411200	0.629600	0.781100
P201	P20	0.365300	0.683800	0.720800
P211	P21	0.454000	0.648300	0.688300
O851	O85	0.419100	0.626100	0.750400
O861	O86	0.385900	0.612700	0.787000
O871	O87	0.398300	0.659100	0.781300
O881	O88	0.434100	0.628800	0.798800
O891	O89	0.364900	0.690700	0.753200
O901	O90	0.365400	0.702900	0.699600
O911	O91	0.342700	0.663500	0.718100
O921	O92	0.471700	0.663200	0.785900
O931	O93	0.444600	0.669600	0.667800
O941	O94	0.473400	0.618000	0.830000
O951	O95	0.393500	0.670500	0.717100
O961	O96	0.426600	0.633900	0.699600
O971	O97	0.469500	0.658700	0.711700
O981	O98	0.472100	0.627500	0.678300
Al221	Al22	0.366200	0.170100	0.280500
Al231	Al23	0.461600	0.144200	0.311200
Al241	Al24	0.404700	0.138400	0.222400
P221	P22	0.411200	0.129600	0.281100
P231	P23	0.365300	0.183800	0.220800
P241	P24	0.454000	0.148300	0.188300
O991	O99	0.419100	0.126100	0.250400
O1001	O100	0.385900	0.112700	0.287000
O1011	O101	0.398300	0.159100	0.281300
O1021	O102	0.434100	0.128800	0.298800
O1031	O103	0.364900	0.190700	0.253200
O1041	O104	0.365400	0.202900	0.199600
O1051	O105	0.342700	0.163500	0.218100
O1061	O106	0.471700	0.163200	0.285900
O1071	O107	0.444600	0.169600	0.167800
O1081	O108	0.473400	0.118000	0.330000
O1091	O109	0.393500	0.170500	0.217100
O1101	O110	0.426600	0.133900	0.199600
O1111	O111	0.469500	0.158700	0.211700
O1121	O112	0.472100	0.127500	0.178300
Al251	Al25	0.866200	0.329900	0.719500
Al261	Al26	0.961600	0.355800	0.688800
Al271	Al27	0.904700	0.361600	0.777600
P251	P25	0.911200	0.370400	0.718900
P261	P26	0.865300	0.316200	0.779200
P271	P27	0.954000	0.351700	0.811700
O1131	O113	0.919100	0.373900	0.749600
O1141	O114	0.885900	0.387300	0.713000
O1151	O115	0.898300	0.340900	0.718700
O1161	O116	0.934100	0.371200	0.701200
O1171	O117	0.864900	0.309300	0.746800
O1181	O118	0.865400	0.297100	0.800400
O1191	O119	0.842700	0.336500	0.781900
O1201	O120	0.971700	0.336800	0.714100
O1211	O121	0.944600	0.330400	0.832200
O1221	O122	0.973400	0.382000	0.670000
O1231	O123	0.893500	0.329500	0.782900
O1241	O124	0.926600	0.366100	0.800400
O1251	O125	0.969500	0.341300	0.788300
O1261	O126	0.972100	0.372500	0.821700
Al281	Al28	0.866200	0.829900	0.219500
Al291	Al29	0.961600	0.855800	0.188800
Al301	Al30	0.904700	0.861600	0.277600
P281	P28	0.911200	0.870400	0.218900
P291	P29	0.865300	0.816200	0.279200
P301	P30	0.954000	0.851700	0.311700
O1271	O127	0.919100	0.873900	0.249600
O1281	O128	0.885900	0.887300	0.213000
O1291	O129	0.898300	0.840900	0.218700
O1301	O130	0.934100	0.871200	0.201200
O1311	O131	0.864900	0.809300	0.246800
O1321	O132	0.865400	0.797100	0.300400
O1331	O133	0.842700	0.836500	0.281900
O1341	O134	0.971700	0.836800	0.214100
O1351	O135	0.944600	0.830400	0.332200
O1361	O136	0.973400	0.882000	0.170000
O1371	O137	0.893500	0.829500	0.282900
O1381	O138	0.926600	0.866100	0.300400
O1391	O139	0.969500	0.841300	0.288300
O1401	O140	0.972100	0.872500	0.321700
Al311	Al31	0.366200	0.329900	0.219500
Al321	Al32	0.461600	0.355800	0.188800
Al331	Al33	0.404700	0.361600	0.277600
P311	P31	0.411200	0.370400	0.218900
P321	P32	0.365300	0.316200	0.279200
P331	P33	0.454000	0.351700	0.311700
O1411	O141	0.419100	0.373900	0.249600
O1421	O142	0.385900	0.387300	0.213000
O1431	O143	0.398300	0.340900	0.218700
O1441	O144	0.434100	0.371200	0.201200
O1451	O145	0.364900	0.309300	0.246800
O1461	O146	0.365400	0.297100	0.300400
O1471	O147	0.342700	0.336500	0.281900
O1481	O148	0.471700	0.336800	0.214100
O1491	O149	0.444600	0.330400	0.332200
O1501	O150	0.473400	0.382000	0.170000
O1511	O151	0.393500	0.329500	0.282900
O1521	O152	0.426600	0.366100	0.300400
O1531	O153	0.469500	0.341300	0.288300
O1541	O154	0.472100	0.372500	0.321700
Al341	Al34	0.366200	0.829900	0.719500
Al351	Al35	0.461600	0.855800	0.688800
Al361	Al36	0.404700	0.861600	0.777600
P341	P34	0.411200	0.870400	0.718900
P351	P35	0.365300	0.816200	0.779200
P361	P36	0.454000	0.851700	0.811700
O1551	O155	0.419100	0.873900	0.749600
O1561	O156	0.385900	0.887300	0.713000
O1571	O157	0.398300	0.840900	0.718700
O1581	O158	0.434100	0.871200	0.701200
O1591	O159	0.364900	0.809300	0.746800
O1601	O160	0.365400	0.797100	0.800400
O1611	O161	0.342700	0.836500	0.781900
O1621	O162	0.471700	0.836800	0.714100
O1631	O163	0.444600	0.830400	0.832200
O1641	O164	0.473400	0.882000	0.670000
O1651	O165	0.393500	0.829500	0.782900
O1661	O166	0.426600	0.866100	0.800400
O1671	O167	0.469500	0.841300	0.788300
O1681	O168	0.472100	0.872500	0.821700
Al371	Al37	0.133800	0.670100	0.719500
Al381	Al38	0.038400	0.644200	0.688800
Al391	Al39	0.095300	0.638400	0.777600
P371	P37	0.088800	0.629600	0.718900
P381	P38	0.134700	0.683800	0.779200
P391	P39	0.046000	0.648300	0.811700
O1691	O169	0.080900	0.626100	0.749600
O1701	O170	0.114100	0.612700	0.713000
O1711	O171	0.101700	0.659100	0.718700
O1721	O172	0.065900	0.628800	0.701200
O1731	O173	0.135100	0.690700	0.746800
O1741	O174	0.134600	0.702900	0.800400
O1751	O175	0.157300	0.663500	0.781900
O1761	O176	0.028300	0.663200	0.714100
O1771	O177	0.055400	0.669600	0.832200
O1781	O178	0.026600	0.618000	0.670000
O1791	O179	0.106500	0.670500	0.782900
O1801	O180	0.073400	0.633900	0.800400
O1811	O181	0.030500	0.658700	0.788300
O1821	O182	0.027900	0.627500	0.821700
Al401	Al40	0.133800	0.170100	0.219500
Al411	Al41	0.038400	0.144200	0.188800
Al421	Al42	0.095300	0.138400	0.277600
P401	P40	0.088800	0.129600	0.218900
P411	P41	0.134700	0.183800	0.279200
P421	P42	0.046000	0.148300	0.311700
O1831	O183	0.080900	0.126100	0.249600
O1841	O184	0.114100	0.112700	0.213000
O1851	O185	0.101700	0.159100	0.218700
O1861	O186	0.065900	0.128800	0.201200
O1871	O187	0.135100	0.190700	0.246800
O1881	O188	0.134600	0.202900	0.300400
O1891	O189	0.157300	0.163500	0.281900
O1901	O190	0.028300	0.163200	0.214100
O1911	O191	0.055400	0.169600	0.332200
O1921	O192	0.026600	0.118000	0.170000
O1931	O193	0.106500	0.170500	0.282900
O1941	O194	0.073400	0.133900	0.300400
O1951	O195	0.030500	0.158700	0.288300
O1961	O196	0.027900	0.127500	0.321700
Al431	Al43	0.633800	0.670100	0.219500
Al441	Al44	0.538400	0.644200	0.188800
Al451	Al45	0.595300	0.638400	0.277600
P431	P43	0.588800	0.629600	0.218900
P441	P44	0.634700	0.683800	0.279200
P451	P45	0.546000	0.648300	0.311700
O1971	O197	0.580900	0.626100	0.249600
O1981	O198	0.614100	0.612700	0.213000
O1991	O199	0.601700	0.659100	0.218700
O2001	O200	0.565900	0.628800	0.201200
O2011	O201	0.635100	0.690700	0.246800
O2021	O202	0.634600	0.702900	0.300400
O2031	O203	0.657300	0.663500	0.281900
O2041	O204	0.528300	0.663200	0.214100
O2051	O205	0.555400	0.669600	0.332200
O2061	O206	0.526600	0.618000	0.170000
O2071	O207	0.606500	0.670500	0.282900
O2081	O208	0.573400	0.633900	0.300400
O2091	O209	0.530500	0.658700	0.288300
O2101	O210	0.527900	0.627500	0.321700
Al461	Al46	0.633800	0.170100	0.719500
Al471	Al47	0.538400	0.144200	0.688800
Al481	Al48	0.595300	0.138400	0.777600
P461	P46	0.588800	0.129600	0.718900
P471	P47	0.634700	0.183800	0.779200
P481	P48	0.546000	0.148300	0.811700
O2111	O211	0.580900	0.126100	0.749600
O2121	O212	0.614100	0.112700	0.713000
O2131	O213	0.601700	0.159100	0.718700
O2141	O214	0.565900	0.128800	0.701200
O2151	O215	0.635100	0.190700	0.746800
O2161	O216	0.634600	0.202900	0.800400
O2171	O217	0.657300	0.163500	0.781900
O2181	O218	0.528300	0.163200	0.714100
O2191	O219	0.555400	0.169600	0.832200
O2201	O220	0.526600	0.118000	0.670000
O2211	O221	0.606500	0.170500	0.782900
O2221	O222	0.573400	0.133900	0.800400
O2231	O223	0.530500	0.158700	0.788300
O2241	O224	0.527900	0.127500	0.821700
Al491	Al49	0.280500	0.133800	0.329900
Al501	Al50	0.311200	0.038400	0.355800
Al511	Al51	0.222400	0.095300	0.361600
P491	P49	0.281100	0.088800	0.370400
P501	P50	0.220800	0.134700	0.316200
P511	P51	0.188300	0.046000	0.351700
O2251	O225	0.250400	0.080900	0.373900
O2261	O226	0.287000	0.114100	0.387300
O2271	O227	0.281300	0.101700	0.340900
O2281	O228	0.298800	0.065900	0.371200
O2291	O229	0.253200	0.135100	0.309300
O2301	O230	0.199600	0.134600	0.297100
O2311	O231	0.218100	0.157300	0.336500
O2321	O232	0.285900	0.028300	0.336800
O2331	O233	0.167800	0.055400	0.330400
O2341	O234	0.330000	0.026600	0.382000
O2351	O235	0.217100	0.106500	0.329500
O2361	O236	0.199600	0.073400	0.366100
O2371	O237	0.211700	0.030500	0.341300
O2381	O238	0.178300	0.027900	0.372500
Al521	Al52	0.280500	0.633800	0.829900
Al531	Al53	0.311200	0.538400	0.855800
Al541	Al54	0.222400	0.595300	0.861600
P521	P52	0.281100	0.588800	0.870400
P531	P53	0.220800	0.634700	0.816200
P541	P54	0.188300	0.546000	0.851700
O2391	O239	0.250400	0.580900	0.873900
O2401	O240	0.287000	0.614100	0.887300
O2411	O241	0.281300	0.601700	0.840900
O2421	O242	0.298800	0.565900	0.871200
O2431	O243	0.253200	0.635100	0.809300
O2441	O244	0.199600	0.634600	0.797100
O2451	O245	0.218100	0.657300	0.836500
O2461	O246	0.285900	0.528300	0.836800
O2471	O247	0.167800	0.555400	0.830400
O2481	O248	0.330000	0.526600	0.882000
O2491	O249	0.217100	0.606500	0.829500
O2501	O250	0.199600	0.573400	0.866100
O2511	O251	0.211700	0.530500	0.841300
O2521	O252	0.178300	0.527900	0.872500
Al551	Al55	0.780500	0.133800	0.829900
Al561	Al56	0.811200	0.038400	0.855800
Al571	Al57	0.722400	0.095300	0.861600
P551	P55	0.781100	0.088800	0.870400
P561	P56	0.720800	0.134700	0.816200
P571	P57	0.688300	0.046000	0.851700
O2531	O253	0.750400	0.080900	0.873900
O2541	O254	0.787000	0.114100	0.887300
O2551	O255	0.781300	0.101700	0.840900
O2561	O256	0.798800	0.065900	0.871200
O2571	O257	0.753200	0.135100	0.809300
O2581	O258	0.699600	0.134600	0.797100
O2591	O259	0.718100	0.157300	0.836500
O2601	O260	0.785900	0.028300	0.836800
O2611	O261	0.667800	0.055400	0.830400
O2621	O262	0.830000	0.026600	0.882000
O2631	O263	0.717100	0.106500	0.829500
O2641	O264	0.699600	0.073400	0.866100
O2651	O265	0.711700	0.030500	0.841300
O2661	O266	0.678300	0.027900	0.872500
Al581	Al58	0.780500	0.633800	0.329900
Al591	Al59	0.811200	0.538400	0.355800
Al601	Al60	0.722400	0.595300	0.361600
P581	P58	0.781100	0.588800	0.370400
P591	P59	0.720800	0.634700	0.316200
P601	P60	0.688300	0.546000	0.351700
O2671	O267	0.750400	0.580900	0.373900
O2681	O268	0.787000	0.614100	0.387300
O2691	O269	0.781300	0.601700	0.340900
O2701	O270	0.798800	0.565900	0.371200
O2711	O271	0.753200	0.635100	0.309300
O2721	O272	0.699600	0.634600	0.297100
O2731	O273	0.718100	0.657300	0.336500
O2741	O274	0.785900	0.528300	0.336800
O2751	O275	0.667800	0.555400	0.330400
O2761	O276	0.830000	0.526600	0.382000
O2771	O277	0.717100	0.606500	0.329500
O2781	O278	0.699600	0.573400	0.366100
O2791	O279	0.711700	0.530500	0.341300
O2801	O280	0.678300	0.527900	0.372500
Al611	Al61	0.280500	0.866200	0.670100
Al621	Al62	0.311200	0.961600	0.644200
Al631	Al63	0.222400	0.904700	0.638400
P611	P61	0.281100	0.911200	0.629600
P621	P62	0.220800	0.865300	0.683800
P631	P63	0.188300	0.954000	0.648300
O2811	O281	0.250400	0.919100	0.626100
O2821	O282	0.287000	0.885900	0.612700
O2831	O283	0.281300	0.898300	0.659100
O2841	O284	0.298800	0.934100	0.628800
O2851	O285	0.253200	0.864900	0.690700
O2861	O286	0.199600	0.865400	0.702900
O2871	O287	0.218100	0.842700	0.663500
O2881	O288	0.285900	0.971700	0.663200
O2891	O289	0.167800	0.944600	0.669600
O2901	O290	0.330000	0.973400	0.618000
O2911	O291	0.217100	0.893500	0.670500
O2921	O292	0.199600	0.926600	0.633900
O2931	O293	0.211700	0.969500	0.658700
O2941	O294	0.178300	0.972100	0.627500
Al641	Al64	0.280500	0.366200	0.170100
Al651	Al65	0.311200	0.461600	0.144200
Al661	Al66	0.222400	0.404700	0.138400
P641	P64	0.281100	0.411200	0.129600
P651	P65	0.220800	0.365300	0.183800
P661	P66	0.188300	0.454000	0.148300
O2951	O295	0.250400	0.419100	0.126100
O2961	O296	0.287000	0.385900	0.112700
O2971	O297	0.281300	0.398300	0.159100
O2981	O298	0.298800	0.434100	0.128800
O2991	O299	0.253200	0.364900	0.190700
O3001	O300	0.199600	0.365400	0.202900
O3011	O301	0.218100	0.342700	0.163500
O3021	O302	0.285900	0.471700	0.163200
O3031	O303	0.167800	0.444600	0.169600
O3041	O304	0.330000	0.473400	0.118000
O3051	O305	0.217100	0.393500	0.170500
O3061	O306	0.199600	0.426600	0.133900
O3071	O307	0.211700	0.469500	0.158700
O3081	O308	0.178300	0.472100	0.127500
Al671	Al67	0.780500	0.866200	0.170100
Al681	Al68	0.811200	0.961600	0.144200
Al691	Al69	0.722400	0.904700	0.138400
P671	P67	0.781100	0.911200	0.129600
P681	P68	0.720800	0.865300	0.183800
P691	P69	0.688300	0.954000	0.148300
O3091	O309	0.750400	0.919100	0.126100
O3101	O310	0.787000	0.885900	0.112700
O3111	O311	0.781300	0.898300	0.159100
O3121	O312	0.798800	0.934100	0.128800
O3131	O313	0.753200	0.864900	0.190700
O3141	O314	0.699600	0.865400	0.202900
O3151	O315	0.718100	0.842700	0.163500
O3161	O316	0.785900	0.971700	0.163200
O3171	O317	0.667800	0.944600	0.169600
O3181	O318	0.830000	0.973400	0.118000
O3191	O319	0.717100	0.893500	0.170500
O3201	O320	0.699600	0.926600	0.133900
O3211	O321	0.711700	0.969500	0.158700
O3221	O322	0.678300	0.972100	0.127500
Al701	Al70	0.780500	0.366200	0.670100
Al711	Al71	0.811200	0.461600	0.644200
Al721	Al72	0.722400	0.404700	0.638400
P701	P70	0.781100	0.411200	0.629600
P711	P71	0.720800	0.365300	0.683800
P721	P72	0.688300	0.454000	0.648300
O3231	O323	0.750400	0.419100	0.626100
O3241	O324	0.787000	0.385900	0.612700
O3251	O325	0.781300	0.398300	0.659100
O3261	O326	0.798800	0.434100	0.628800
O3271	O327	0.753200	0.364900	0.690700
O3281	O328	0.699600	0.365400	0.702900
O3291	O329	0.718100	0.342700	0.663500
O3301	O330	0.785900	0.471700	0.663200
O3311	O331	0.667800	0.444600	0.669600
O3321	O332	0.830000	0.473400	0.618000
O3331	O333	0.717100	0.393500	0.670500
O3341	O334	0.699600	0.426600	0.633900
O3351	O335	0.711700	0.469500	0.658700
O3361	O336	0.678300	0.472100	0.627500
Al731	Al73	0.719500	0.866200	0.329900
Al741	Al74	0.688800	0.961600	0.355800
Al751	Al75	0.777600	0.904700	0.361600
P731	P73	0.718900	0.911200	0.370400
P741	P74	0.779200	0.865300	0.316200
P751	P75	0.811700	0.954000	0.351700
O3371	O337	0.749600	0.919100	0.373900
O3381	O338	0.713000	0.885900	0.387300
O3391	O339	0.718700	0.898300	0.340900
O3401	O340	0.701200	0.934100	0.371200
O3411	O341	0.746800	0.864900	0.309300
O3421	O342	0.800400	0.865400	0.297100
O3431	O343	0.781900	0.842700	0.336500
O3441	O344	0.714100	0.971700	0.336800
O3451	O345	0.832200	0.944600	0.330400
O3461	O346	0.670000	0.973400	0.382000
O3471	O347	0.782900	0.893500	0.329500
O3481	O348	0.800400	0.926600	0.366100
O3491	O349	0.788300	0.969500	0.341300
O3501	O350	0.821700	0.972100	0.372500
Al761	Al76	0.719500	0.366200	0.829900
Al771	Al77	0.688800	0.461600	0.855800
Al781	Al78	0.777600	0.404700	0.861600
P761	P76	0.718900	0.411200	0.870400
P771	P77	0.779200	0.365300	0.816200
P781	P78	0.811700	0.454000	0.851700
O3511	O351	0.749600	0.419100	0.873900
O3521	O352	0.713000	0.385900	0.887300
O3531	O353	0.718700	0.398300	0.840900
O3541	O354	0.701200	0.434100	0.871200
O3551	O355	0.746800	0.364900	0.809300
O3561	O356	0.800400	0.365400	0.797100
O3571	O357	0.781900	0.342700	0.836500
O3581	O358	0.714100	0.471700	0.836800
O3591	O359	0.832200	0.444600	0.830400
O3601	O360	0.670000	0.473400	0.882000
O3611	O361	0.782900	0.393500	0.829500
O3621	O362	0.800400	0.426600	0.866100
O3631	O363	0.788300	0.469500	0.841300
O3641	O364	0.821700	0.472100	0.872500
Al791	Al79	0.219500	0.866200	0.829900
Al801	Al80	0.188800	0.961600	0.855800
Al811	Al81	0.277600	0.904700	0.861600
P791	P79	0.218900	0.911200	0.870400
P801	P80	0.279200	0.865300	0.816200
P811	P81	0.311700	0.954000	0.851700
O3651	O365	0.249600	0.919100	0.873900
O3661	O366	0.213000	0.885900	0.887300
O3671	O367	0.218700	0.898300	0.840900
O3681	O368	0.201200	0.934100	0.871200
O3691	O369	0.246800	0.864900	0.809300
O3701	O370	0.300400	0.865400	0.797100
O3711	O371	0.281900	0.842700	0.836500
O3721	O372	0.214100	0.971700	0.836800
O3731	O373	0.332200	0.944600	0.830400
O3741	O374	0.170000	0.973400	0.882000
O3751	O375	0.282900	0.893500	0.829500
O3761	O376	0.300400	0.926600	0.866100
O3771	O377	0.288300	0.969500	0.841300
O3781	O378	0.321700	0.972100	0.872500
Al821	Al82	0.219500	0.366200	0.329900
Al831	Al83	0.188800	0.461600	0.355800
Al841	Al84	0.277600	0.404700	0.361600
P821	P82	0.218900	0.411200	0.370400
P831	P83	0.279200	0.365300	0.316200
P841	P84	0.311700	0.454000	0.351700
O3791	O379	0.249600	0.419100	0.373900
O3801	O380	0.213000	0.385900	0.387300
O3811	O381	0.218700	0.398300	0.340900
O3821	O382	0.201200	0.434100	0.371200
O3831	O383	0.246800	0.364900	0.309300
O3841	O384	0.300400	0.365400	0.297100
O3851	O385	0.281900	0.342700	0.336500
O3861	O386	0.214100	0.471700	0.336800
O3871	O387	0.332200	0.444600	0.330400
O3881	O388	0.170000	0.473400	0.382000
O3891	O389	0.282900	0.393500	0.329500
O3901	O390	0.300400	0.426600	0.366100
O3911	O391	0.288300	0.469500	0.341300
O3921	O392	0.321700	0.472100	0.372500
Al851	Al85	0.719500	0.133800	0.670100
Al861	Al86	0.688800	0.038400	0.644200
Al871	Al87	0.777600	0.095300	0.638400
P851	P85	0.718900	0.088800	0.629600
P861	P86	0.779200	0.134700	0.683800
P871	P87	0.811700	0.046000	0.648300
O3931	O393	0.749600	0.080900	0.626100
O3941	O394	0.713000	0.114100	0.612700
O3951	O395	0.718700	0.101700	0.659100
O3961	O396	0.701200	0.065900	0.628800
O3971	O397	0.746800	0.135100	0.690700
O3981	O398	0.800400	0.134600	0.702900
O3991	O399	0.781900	0.157300	0.663500
O4001	O400	0.714100	0.028300	0.663200
O4011	O401	0.832200	0.055400	0.669600
O4021	O402	0.670000	0.026600	0.618000
O4031	O403	0.782900	0.106500	0.670500
O4041	O404	0.800400	0.073400	0.633900
O4051	O405	0.788300	0.030500	0.658700
O4061	O406	0.821700	0.027900	0.627500
Al881	Al88	0.719500	0.633800	0.170100
Al891	Al89	0.688800	0.538400	0.144200
Al901	Al90	0.777600	0.595300	0.138400
P881	P88	0.718900	0.588800	0.129600
P891	P89	0.779200	0.634700	0.183800
P901	P90	0.811700	0.546000	0.148300
O4071	O407	0.749600	0.580900	0.126100
O4081	O408	0.713000	0.614100	0.112700
O4091	O409	0.718700	0.601700	0.159100
O4101	O410	0.701200	0.565900	0.128800
O4111	O411	0.746800	0.635100	0.190700
O4121	O412	0.800400	0.634600	0.202900
O4131	O413	0.781900	0.657300	0.163500
O4141	O414	0.714100	0.528300	0.163200
O4151	O415	0.832200	0.555400	0.169600
O4161	O416	0.670000	0.526600	0.118000
O4171	O417	0.782900	0.606500	0.170500
O4181	O418	0.800400	0.573400	0.133900
O4191	O419	0.788300	0.530500	0.158700
O4201	O420	0.821700	0.527900	0.127500
Al911	Al91	0.219500	0.133800	0.170100
Al921	Al92	0.188800	0.038400	0.144200
Al931	Al93	0.277600	0.095300	0.138400
P911	P91	0.218900	0.088800	0.129600
P921	P92	0.279200	0.134700	0.183800
P931	P93	0.311700	0.046000	0.148300
O4211	O421	0.249600	0.080900	0.126100
O4221	O422	0.213000	0.114100	0.112700
O4231	O423	0.218700	0.101700	0.159100
O4241	O424	0.201200	0.065900	0.128800
O4251	O425	0.246800	0.135100	0.190700
O4261	O426	0.300400	0.134600	0.202900
O4271	O427	0.281900	0.157300	0.163500
O4281	O428	0.214100	0.028300	0.163200
O4291	O429	0.332200	0.055400	0.169600
O4301	O430	0.170000	0.026600	0.118000
O4311	O431	0.282900	0.106500	0.170500
O4321	O432	0.300400	0.073400	0.133900
O4331	O433	0.288300	0.030500	0.158700
O4341	O434	0.321700	0.027900	0.127500
Al941	Al94	0.219500	0.633800	0.670100
Al951	Al95	0.188800	0.538400	0.644200
Al961	Al96	0.277600	0.595300	0.638400
P941	P94	0.218900	0.588800	0.629600
P951	P95	0.279200	0.634700	0.683800
P961	P96	0.311700	0.546000	0.648300
O4351	O435	0.249600	0.580900	0.626100
O4361	O436	0.213000	0.614100	0.612700
O4371	O437	0.218700	0.601700	0.659100
O4381	O438	0.201200	0.565900	0.628800
O4391	O439	0.246800	0.635100	0.690700
O4401	O440	0.300400	0.634600	0.702900
O4411	O441	0.281900	0.657300	0.663500
O4421	O442	0.214100	0.528300	0.663200
O4431	O443	0.332200	0.555400	0.669600
O4441	O444	0.170000	0.526600	0.618000
O4451	O445	0.282900	0.606500	0.670500
O4461	O446	0.300400	0.573400	0.633900
O4471	O447	0.288300	0.530500	0.658700
O4481	O448	0.321700	0.527900	0.627500
Al971	Al97	0.329900	0.280500	0.133800
Al981	Al98	0.355800	0.311200	0.038400
Al991	Al99	0.361600	0.222400	0.095300
P971	P97	0.370400	0.281100	0.088800
P981	P98	0.316200	0.220800	0.134700
P991	P99	0.351700	0.188300	0.046000
O4491	O449	0.373900	0.250400	0.080900
O4501	O450	0.387300	0.287000	0.114100
O4511	O451	0.340900	0.281300	0.101700
O4521	O452	0.371200	0.298800	0.065900
O4531	O453	0.309300	0.253200	0.135100
O4541	O454	0.297100	0.199600	0.134600
O4551	O455	0.336500	0.218100	0.157300
O4561	O456	0.336800	0.285900	0.028300
O4571	O457	0.330400	0.167800	0.055400
O4581	O458	0.382000	0.330000	0.026600
O4591	O459	0.329500	0.217100	0.106500
O4601	O460	0.366100	0.199600	0.073400
O4611	O461	0.341300	0.211700	0.030500
O4621	O462	0.372500	0.178300	0.027900
Al1001	Al100	0.329900	0.780500	0.633800
Al1011	Al101	0.355800	0.811200	0.538400
Al1021	Al102	0.361600	0.722400	0.595300
P1001	P100	0.370400	0.781100	0.588800
P1011	P101	0.316200	0.720800	0.634700
P1021	P102	0.351700	0.688300	0.546000
O4631	O463	0.373900	0.750400	0.580900
O4641	O464	0.387300	0.787000	0.614100
O4651	O465	0.340900	0.781300	0.601700
O4661	O466	0.371200	0.798800	0.565900
O4671	O467	0.309300	0.753200	0.635100
O4681	O468	0.297100	0.699600	0.634600
O4691	O469	0.336500	0.718100	0.657300
O4701	O470	0.336800	0.785900	0.528300
O4711	O471	0.330400	0.667800	0.555400
O4721	O472	0.382000	0.830000	0.526600
O4731	O473	0.329500	0.717100	0.606500
O4741	O474	0.366100	0.699600	0.573400
O4751	O475	0.341300	0.711700	0.530500
O4761	O476	0.372500	0.678300	0.527900
Al1031	Al103	0.829900	0.280500	0.633800
Al1041	Al104	0.855800	0.311200	0.538400
Al1051	Al105	0.861600	0.222400	0.595300
P1031	P103	0.870400	0.281100	0.588800
P1041	P104	0.816200	0.220800	0.634700
P1051	P105	0.851700	0.188300	0.546000
O4771	O477	0.873900	0.250400	0.580900
O4781	O478	0.887300	0.287000	0.614100
O4791	O479	0.840900	0.281300	0.601700
O4801	O480	0.871200	0.298800	0.565900
O4811	O481	0.809300	0.253200	0.635100
O4821	O482	0.797100	0.199600	0.634600
O4831	O483	0.836500	0.218100	0.657300
O4841	O484	0.836800	0.285900	0.528300
O4851	O485	0.830400	0.167800	0.555400
O4861	O486	0.882000	0.330000	0.526600
O4871	O487	0.829500	0.217100	0.606500
O4881	O488	0.866100	0.199600	0.573400
O4891	O489	0.841300	0.211700	0.530500
O4901	O490	0.872500	0.178300	0.527900
Al1061	Al106	0.829900	0.780500	0.133800
Al1071	Al107	0.855800	0.811200	0.038400
Al1081	Al108	0.861600	0.722400	0.095300
P1061	P106	0.870400	0.781100	0.088800
P1071	P107	0.816200	0.720800	0.134700
P1081	P108	0.851700	0.688300	0.046000
O4911	O491	0.873900	0.750400	0.080900
O4921	O492	0.887300	0.787000	0.114100
O4931	O493	0.840900	0.781300	0.101700
O4941	O494	0.871200	0.798800	0.065900
O4951	O495	0.809300	0.753200	0.135100
O4961	O496	0.797100	0.699600	0.134600
O4971	O497	0.836500	0.718100	0.157300
O4981	O498	0.836800	0.785900	0.028300
O4991	O499	0.830400	0.667800	0.055400
O5001	O500	0.882000	0.830000	0.026600
O5011	O501	0.829500	0.717100	0.106500
O5021	O502	0.866100	0.699600	0.073400
O5031	O503	0.841300	0.711700	0.030500
O5041	O504	0.872500	0.678300	0.027900
Al1091	Al109	0.670100	0.280500	0.866200
Al1101	Al110	0.644200	0.311200	0.961600
Al1111	Al111	0.638400	0.222400	0.904700
P1091	P109	0.629600	0.281100	0.911200
P1101	P110	0.683800	0.220800	0.865300
P1111	P111	0.648300	0.188300	0.954000
O5051	O505	0.626100	0.250400	0.919100
O5061	O506	0.612700	0.287000	0.885900
O5071	O507	0.659100	0.281300	0.898300
O5081	O508	0.628800	0.298800	0.934100
O5091	O509	0.690700	0.253200	0.864900
O5101	O510	0.702900	0.199600	0.865400
O5111	O511	0.663500	0.218100	0.842700
O5121	O512	0.663200	0.285900	0.971700
O5131	O513	0.669600	0.167800	0.944600
O5141	O514	0.618000	0.330000	0.973400
O5151	O515	0.670500	0.217100	0.893500
O5161	O516	0.633900	0.199600	0.926600
O5171	O517	0.658700	0.211700	0.969500
O5181	O518	0.627500	0.178300	0.972100
Al1121	Al112	0.670100	0.780500	0.366200
Al1131	Al113	0.644200	0.811200	0.461600
Al1141	Al114	0.638400	0.722400	0.404700
P1121	P112	0.629600	0.781100	0.411200
P1131	P113	0.683800	0.720800	0.365300
P1141	P114	0.648300	0.688300	0.454000
O5191	O519	0.626100	0.750400	0.419100
O5201	O520	0.612700	0.787000	0.385900
O5211	O521	0.659100	0.781300	0.398300
O5221	O522	0.628800	0.798800	0.434100
O5231	O523	0.690700	0.753200	0.364900
O5241	O524	0.702900	0.699600	0.365400
O5251	O525	0.663500	0.718100	0.342700
O5261	O526	0.663200	0.785900	0.471700
O5271	O527	0.669600	0.667800	0.444600
O5281	O528	0.618000	0.830000	0.473400
O5291	O529	0.670500	0.717100	0.393500
O5301	O530	0.633900	0.699600	0.426600
O5311	O531	0.658700	0.711700	0.469500
O5321	O532	0.627500	0.678300	0.472100
Al1151	Al115	0.170100	0.280500	0.366200
Al1161	Al116	0.144200	0.311200	0.461600
Al1171	Al117	0.138400	0.222400	0.404700
P1151	P115	0.129600	0.281100	0.411200
P1161	P116	0.183800	0.220800	0.365300
P1171	P117	0.148300	0.188300	0.454000
O5331	O533	0.126100	0.250400	0.419100
O5341	O534	0.112700	0.287000	0.385900
O5351	O535	0.159100	0.281300	0.398300
O5361	O536	0.128800	0.298800	0.434100
O5371	O537	0.190700	0.253200	0.364900
O5381	O538	0.202900	0.199600	0.365400
O5391	O539	0.163500	0.218100	0.342700
O5401	O540	0.163200	0.285900	0.471700
O5411	O541	0.169600	0.167800	0.444600
O5421	O542	0.118000	0.330000	0.473400
O5431	O543	0.170500	0.217100	0.393500
O5441	O544	0.133900	0.199600	0.426600
O5451	O545	0.158700	0.211700	0.469500
O5461	O546	0.127500	0.178300	0.472100
Al1181	Al118	0.170100	0.780500	0.866200
Al1191	Al119	0.144200	0.811200	0.961600
Al1201	Al120	0.138400	0.722400	0.904700
P1181	P118	0.129600	0.781100	0.911200
P1191	P119	0.183800	0.720800	0.865300
P1201	P120	0.148300	0.688300	0.954000
O5471	O547	0.126100	0.750400	0.919100
O5481	O548	0.112700	0.787000	0.885900
O5491	O549	0.159100	0.781300	0.898300
O5501	O550	0.128800	0.798800	0.934100
O5511	O551	0.190700	0.753200	0.864900
O5521	O552	0.202900	0.699600	0.865400
O5531	O553	0.163500	0.718100	0.842700
O5541	O554	0.163200	0.785900	0.971700
O5551	O555	0.169600	0.667800	0.944600
O5561	O556	0.118000	0.830000	0.973400
O5571	O557	0.170500	0.717100	0.893500
O5581	O558	0.133900	0.699600	0.926600
O5591	O559	0.158700	0.711700	0.969500
O5601	O560	0.127500	0.678300	0.972100
Al1211	Al121	0.329900	0.719500	0.866200
Al1221	Al122	0.355800	0.688800	0.961600
Al1231	Al123	0.361600	0.777600	0.904700
P1211	P121	0.370400	0.718900	0.911200
P1221	P122	0.316200	0.779200	0.865300
P1231	P123	0.351700	0.811700	0.954000
O5611	O561	0.373900	0.749600	0.919100
O5621	O562	0.387300	0.713000	0.885900
O5631	O563	0.340900	0.718700	0.898300
O5641	O564	0.371200	0.701200	0.934100
O5651	O565	0.309300	0.746800	0.864900
O5661	O566	0.297100	0.800400	0.865400
O5671	O567	0.336500	0.781900	0.842700
O5681	O568	0.336800	0.714100	0.971700
O5691	O569	0.330400	0.832200	0.944600
O5701	O570	0.382000	0.670000	0.973400
O5711	O571	0.329500	0.782900	0.893500
O5721	O572	0.366100	0.800400	0.926600
O5731	O573	0.341300	0.788300	0.969500
O5741	O574	0.372500	0.821700	0.972100
Al1241	Al124	0.329900	0.219500	0.366200
Al1251	Al125	0.355800	0.188800	0.461600
Al1261	Al126	0.361600	0.277600	0.404700
P1241	P124	0.370400	0.218900	0.411200
P1251	P125	0.316200	0.279200	0.365300
P1261	P126	0.351700	0.311700	0.454000
O5751	O575	0.373900	0.249600	0.419100
O5761	O576	0.387300	0.213000	0.385900
O5771	O577	0.340900	0.218700	0.398300
O5781	O578	0.371200	0.201200	0.434100
O5791	O579	0.309300	0.246800	0.364900
O5801	O580	0.297100	0.300400	0.365400
O5811	O581	0.336500	0.281900	0.342700
O5821	O582	0.336800	0.214100	0.471700
O5831	O583	0.330400	0.332200	0.444600
O5841	O584	0.382000	0.170000	0.473400
O5851	O585	0.329500	0.282900	0.393500
O5861	O586	0.366100	0.300400	0.426600
O5871	O587	0.341300	0.288300	0.469500
O5881	O588	0.372500	0.321700	0.472100
Al1271	Al127	0.829900	0.719500	0.366200
Al1281	Al128	0.855800	0.688800	0.461600
Al1291	Al129	0.861600	0.777600	0.404700
P1271	P127	0.870400	0.718900	0.411200
P1281	P128	0.816200	0.779200	0.365300
P1291	P129	0.851700	0.811700	0.454000
O5891	O589	0.873900	0.749600	0.419100
O5901	O590	0.887300	0.713000	0.385900
O5911	O591	0.840900	0.718700	0.398300
O5921	O592	0.871200	0.701200	0.434100
O5931	O593	0.809300	0.746800	0.364900
O5941	O594	0.797100	0.800400	0.365400
O5951	O595	0.836500	0.781900	0.342700
O5961	O596	0.836800	0.714100	0.471700
O5971	O597	0.830400	0.832200	0.444600
O5981	O598	0.882000	0.670000	0.473400
O5991	O599	0.829500	0.782900	0.393500
O6001	O600	0.866100	0.800400	0.426600
O6011	O601	0.841300	0.788300	0.469500
O6021	O602	0.872500	0.821700	0.472100
Al1301	Al130	0.829900	0.219500	0.866200
Al1311	Al131	0.855800	0.188800	0.961600
Al1321	Al132	0.861600	0.277600	0.904700
P1301	P130	0.870400	0.218900	0.911200
P1311	P131	0.816200	0.279200	0.865300
P1321	P132	0.851700	0.311700	0.954000
O6031	O603	0.873900	0.249600	0.919100
O6041	O604	0.887300	0.213000	0.885900
O6051	O605	0.840900	0.218700	0.898300
O6061	O606	0.871200	0.201200	0.934100
O6071	O607	0.809300	0.246800	0.864900
O6081	O608	0.797100	0.300400	0.865400
O6091	O609	0.836500	0.281900	0.842700
O6101	O610	0.836800	0.214100	0.971700
O6111	O611	0.830400	0.332200	0.944600
O6121	O612	0.882000	0.170000	0.973400
O6131	O613	0.829500	0.282900	0.893500
O6141	O614	0.866100	0.300400	0.926600
O6151	O615	0.841300	0.288300	0.969500
O6161	O616	0.872500	0.321700	0.972100
Al1331	Al133	0.670100	0.719500	0.133800
Al1341	Al134	0.644200	0.688800	0.038400
Al1351	Al135	0.638400	0.777600	0.095300
P1331	P133	0.629600	0.718900	0.088800
P1341	P134	0.683800	0.779200	0.134700
P1351	P135	0.648300	0.811700	0.046000
O6171	O617	0.626100	0.749600	0.080900
O6181	O618	0.612700	0.713000	0.114100
O6191	O619	0.659100	0.718700	0.101700
O6201	O620	0.628800	0.701200	0.065900
O6211	O621	0.690700	0.746800	0.135100
O6221	O622	0.702900	0.800400	0.134600
O6231	O623	0.663500	0.781900	0.157300
O6241	O624	0.663200	0.714100	0.028300
O6251	O625	0.669600	0.832200	0.055400
O6261	O626	0.618000	0.670000	0.026600
O6271	O627	0.670500	0.782900	0.106500
O6281	O628	0.633900	0.800400	0.073400
O6291	O629	0.658700	0.788300	0.030500
O6301	O630	0.627500	0.821700	0.027900
Al1361	Al136	0.670100	0.219500	0.633800
Al1371	Al137	0.644200	0.188800	0.538400
Al1381	Al138	0.638400	0.277600	0.595300
P1361	P136	0.629600	0.218900	0.588800
P1371	P137	0.683800	0.279200	0.634700
P1381	P138	0.648300	0.311700	0.546000
O6311	O631	0.626100	0.249600	0.580900
O6321	O632	0.612700	0.213000	0.614100
O6331	O633	0.659100	0.218700	0.601700
O6341	O634	0.628800	0.201200	0.565900
O6351	O635	0.690700	0.246800	0.635100
O6361	O636	0.702900	0.300400	0.634600
O6371	O637	0.663500	0.281900	0.657300
O6381	O638	0.663200	0.214100	0.528300
O6391	O639	0.669600	0.332200	0.555400
O6401	O640	0.618000	0.170000	0.526600
O6411	O641	0.670500	0.282900	0.606500
O6421	O642	0.633900	0.300400	0.573400
O6431	O643	0.658700	0.288300	0.530500
O6441	O644	0.627500	0.321700	0.527900
Al1391	Al139	0.170100	0.719500	0.633800
Al1401	Al140	0.144200	0.688800	0.538400
Al1411	Al141	0.138400	0.777600	0.595300
P1391	P139	0.129600	0.718900	0.588800
P1401	P140	0.183800	0.779200	0.634700
P1411	P141	0.148300	0.811700	0.546000
O6451	O645	0.126100	0.749600	0.580900
O6461	O646	0.112700	0.713000	0.614100
O6471	O647	0.159100	0.718700	0.601700
O6481	O648	0.128800	0.701200	0.565900
O6491	O649	0.190700	0.746800	0.635100
O6501	O650	0.202900	0.800400	0.634600
O6511	O651	0.163500	0.781900	0.657300
O6521	O652	0.163200	0.714100	0.528300
O6531	O653	0.169600	0.832200	0.555400
O6541	O654	0.118000	0.670000	0.526600
O6551	O655	0.170500	0.782900	0.606500
O6561	O656	0.133900	0.800400	0.573400
O6571	O657	0.158700	0.788300	0.530500
O6581	O658	0.127500	0.821700	0.527900
Al1421	Al142	0.170100	0.219500	0.133800
Al1431	Al143	0.144200	0.188800	0.038400
Al1441	Al144	0.138400	0.277600	0.095300
P1421	P142	0.129600	0.218900	0.088800
P1431	P143	0.183800	0.279200	0.134700
P1441	P144	0.148300	0.311700	0.046000
O6591	O659	0.126100	0.249600	0.080900
O6601	O660	0.112700	0.213000	0.114100
O6611	O661	0.159100	0.218700	0.101700
O6621	O662	0.128800	0.201200	0.065900
O6631	O663	0.190700	0.246800	0.135100
O6641	O664	0.202900	0.300400	0.134600
O6651	O665	0.163500	0.281900	0.157300
O6661	O666	0.163200	0.214100	0.028300
O6671	O667	0.169600	0.332200	0.055400
O6681	O668	0.118000	0.170000	0.026600
O6691	O669	0.170500	0.282900	0.106500
O6701	O670	0.133900	0.300400	0.073400
O6711	O671	0.158700	0.288300	0.030500
O6721	O672	0.127500	0.321700	0.027900
Al1451	Al145	0.829900	0.633800	0.219500
Al1461	Al146	0.855800	0.538400	0.188800
Al1471	Al147	0.861600	0.595300	0.277600
P1451	P145	0.870400	0.588800	0.218900
P1461	P146	0.816200	0.634700	0.279200
P1471	P147	0.851700	0.546000	0.311700
O6731	O673	0.873900	0.580900	0.249600
O6741	O674	0.887300	0.614100	0.213000
O6751	O675	0.840900	0.601700	0.218700
O6761	O676	0.871200	0.565900	0.201200
O6771	O677	0.809300	0.635100	0.246800
O6781	O678	0.797100	0.634600	0.300400
O6791	O679	0.836500	0.657300	0.281900
O6801	O680	0.836800	0.528300	0.214100
O6811	O681	0.830400	0.555400	0.332200
O6821	O682	0.882000	0.526600	0.170000
O6831	O683	0.829500	0.606500	0.282900
O6841	O684	0.866100	0.573400	0.300400
O6851	O685	0.841300	0.530500	0.288300
O6861	O686	0.872500	0.527900	0.321700
Al1481	Al148	0.829900	0.133800	0.719500
Al1491	Al149	0.855800	0.038400	0.688800
Al1501	Al150	0.861600	0.095300	0.777600
P1481	P148	0.870400	0.088800	0.718900
P1491	P149	0.816200	0.134700	0.779200
P1501	P150	0.851700	0.046000	0.811700
O6871	O687	0.873900	0.080900	0.749600
O6881	O688	0.887300	0.114100	0.713000
O6891	O689	0.840900	0.101700	0.718700
O6901	O690	0.871200	0.065900	0.701200
O6911	O691	0.809300	0.135100	0.746800
O6921	O692	0.797100	0.134600	0.800400
O6931	O693	0.836500	0.157300	0.781900
O6941	O694	0.836800	0.028300	0.714100
O6951	O695	0.830400	0.055400	0.832200
O6961	O696	0.882000	0.026600	0.670000
O6971	O697	0.829500	0.106500	0.782900
O6981	O698	0.866100	0.073400	0.800400
O6991	O699	0.841300	0.030500	0.788300
O7001	O700	0.872500	0.027900	0.821700
Al1511	Al151	0.329900	0.633800	0.719500
Al1521	Al152	0.355800	0.538400	0.688800
Al1531	Al153	0.361600	0.595300	0.777600
P1511	P151	0.370400	0.588800	0.718900
P1521	P152	0.316200	0.634700	0.779200
P1531	P153	0.351700	0.546000	0.811700
O7011	O701	0.373900	0.580900	0.749600
O7021	O702	0.387300	0.614100	0.713000
O7031	O703	0.340900	0.601700	0.718700
O7041	O704	0.371200	0.565900	0.701200
O7051	O705	0.309300	0.635100	0.746800
O7061	O706	0.297100	0.634600	0.800400
O7071	O707	0.336500	0.657300	0.781900
O7081	O708	0.336800	0.528300	0.714100
O7091	O709	0.330400	0.555400	0.832200
O7101	O710	0.382000	0.526600	0.670000
O7111	O711	0.329500	0.606500	0.782900
O7121	O712	0.366100	0.573400	0.800400
O7131	O713	0.341300	0.530500	0.788300
O7141	O714	0.372500	0.527900	0.821700
Al1541	Al154	0.329900	0.133800	0.219500
Al1551	Al155	0.355800	0.038400	0.188800
Al1561	Al156	0.361600	0.095300	0.277600
P1541	P154	0.370400	0.088800	0.218900
P1551	P155	0.316200	0.134700	0.279200
P1561	P156	0.351700	0.046000	0.311700
O7151	O715	0.373900	0.080900	0.249600
O7161	O716	0.387300	0.114100	0.213000
O7171	O717	0.340900	0.101700	0.218700
O7181	O718	0.371200	0.065900	0.201200
O7191	O719	0.309300	0.135100	0.246800
O7201	O720	0.297100	0.134600	0.300400
O7211	O721	0.336500	0.157300	0.281900
O7221	O722	0.336800	0.028300	0.214100
O7231	O723	0.330400	0.055400	0.332200
O7241	O724	0.382000	0.026600	0.170000
O7251	O725	0.329500	0.106500	0.282900
O7261	O726	0.366100	0.073400	0.300400
O7271	O727	0.341300	0.030500	0.288300
O7281	O728	0.372500	0.027900	0.321700
Al1571	Al157	0.170100	0.366200	0.219500
Al1581	Al158	0.144200	0.461600	0.188800
Al1591	Al159	0.138400	0.404700	0.277600
P1571	P157	0.129600	0.411200	0.218900
P1581	P158	0.183800	0.365300	0.279200
P1591	P159	0.148300	0.454000	0.311700
O7291	O729	0.126100	0.419100	0.249600
O7301	O730	0.112700	0.385900	0.213000
O7311	O731	0.159100	0.398300	0.218700
O7321	O732	0.128800	0.434100	0.201200
O7331	O733	0.190700	0.364900	0.246800
O7341	O734	0.202900	0.365400	0.300400
O7351	O735	0.163500	0.342700	0.281900
O7361	O736	0.163200	0.471700	0.214100
O7371	O737	0.169600	0.444600	0.332200
O7381	O738	0.118000	0.473400	0.170000
O7391	O739	0.170500	0.393500	0.282900
O7401	O740	0.133900	0.426600	0.300400
O7411	O741	0.158700	0.469500	0.288300
O7421	O742	0.127500	0.472100	0.321700
Al1601	Al160	0.170100	0.866200	0.719500
Al1611	Al161	0.144200	0.961600	0.688800
Al1621	Al162	0.138400	0.904700	0.777600
P1601	P160	0.129600	0.911200	0.718900
P1611	P161	0.183800	0.865300	0.779200
P1621	P162	0.148300	0.954000	0.811700
O7431	O743	0.126100	0.919100	0.749600
O7441	O744	0.112700	0.885900	0.713000
O7451	O745	0.159100	0.898300	0.718700
O7461	O746	0.128800	0.934100	0.701200
O7471	O747	0.190700	0.864900	0.746800
O7481	O748	0.202900	0.865400	0.800400
O7491	O749	0.163500	0.842700	0.781900
O7501	O750	0.163200	0.971700	0.714100
O7511	O751	0.169600	0.944600	0.832200
O7521	O752	0.118000	0.973400	0.670000
O7531	O753	0.170500	0.893500	0.782900
O7541	O754	0.133900	0.926600	0.800400
O7551	O755	0.158700	0.969500	0.788300
O7561	O756	0.127500	0.972100	0.821700
Al1631	Al163	0.670100	0.366200	0.719500
Al1641	Al164	0.644200	0.461600	0.688800
Al1651	Al165	0.638400	0.404700	0.777600
P1631	P163	0.629600	0.411200	0.718900
P1641	P164	0.683800	0.365300	0.779200
P1651	P165	0.648300	0.454000	0.811700
O7571	O757	0.626100	0.419100	0.749600
O7581	O758	0.612700	0.385900	0.713000
O7591	O759	0.659100	0.398300	0.718700
O7601	O760	0.628800	0.434100	0.701200
O7611	O761	0.690700	0.364900	0.746800
O7621	O762	0.702900	0.365400	0.800400
O7631	O763	0.663500	0.342700	0.781900
O7641	O764	0.663200	0.471700	0.714100
O7651	O765	0.669600	0.444600	0.832200
O7661	O766	0.618000	0.473400	0.670000
O7671	O767	0.670500	0.393500	0.782900
O7681	O768	0.633900	0.426600	0.800400
O7691	O769	0.658700	0.469500	0.788300
O7701	O770	0.627500	0.472100	0.821700
Al1661	Al166	0.670100	0.866200	0.219500
Al1671	Al167	0.644200	0.961600	0.188800
Al1681	Al168	0.638400	0.904700	0.277600
P1661	P166	0.629600	0.911200	0.218900
P1671	P167	0.683800	0.865300	0.279200
P1681	P168	0.648300	0.954000	0.311700
O7711	O771	0.626100	0.919100	0.249600
O7721	O772	0.612700	0.885900	0.213000
O7731	O773	0.659100	0.898300	0.218700
O7741	O774	0.628800	0.934100	0.201200
O7751	O775	0.690700	0.864900	0.246800
O7761	O776	0.702900	0.865400	0.300400
O7771	O777	0.663500	0.842700	0.281900
O7781	O778	0.663200	0.971700	0.214100
O7791	O779	0.669600	0.944600	0.332200
O7801	O780	0.618000	0.973400	0.170000
O7811	O781	0.670500	0.893500	0.282900
O7821	O782	0.633900	0.926600	0.300400
O7831	O783	0.658700	0.969500	0.288300
O7841	O784	0.627500	0.972100	0.321700
Al1691	Al169	0.829900	0.366200	0.780500
Al1701	Al170	0.855800	0.461600	0.811200
Al1711	Al171	0.861600	0.404700	0.722400
P1691	P169	0.870400	0.411200	0.781100
P1701	P170	0.816200	0.365300	0.720800
P1711	P171	0.851700	0.454000	0.688300
O7851	O785	0.873900	0.419100	0.750400
O7861	O786	0.887300	0.385900	0.787000
O7871	O787	0.840900	0.398300	0.781300
O7881	O788	0.871200	0.434100	0.798800
O7891	O789	0.809300	0.364900	0.753200
O7901	O790	0.797100	0.365400	0.699600
O7911	O791	0.836500	0.342700	0.718100
O7921	O792	0.836800	0.471700	0.785900
O7931	O793	0.830400	0.444600	0.667800
O7941	O794	0.882000	0.473400	0.830000
O7951	O795	0.829500	0.393500	0.717100
O7961	O796	0.866100	0.426600	0.699600
O7971	O797	0.841300	0.469500	0.711700
O7981	O798	0.872500	0.472100	0.678300
Al1721	Al172	0.829900	0.866200	0.280500
Al1731	Al173	0.855800	0.961600	0.311200
Al1741	Al174	0.861600	0.904700	0.222400
P1721	P172	0.870400	0.911200	0.281100
P1731	P173	0.816200	0.865300	0.220800
P1741	P174	0.851700	0.954000	0.188300
O7991	O799	0.873900	0.919100	0.250400
O8001	O800	0.887300	0.885900	0.287000
O8011	O801	0.840900	0.898300	0.281300
O8021	O802	0.871200	0.934100	0.298800
O8031	O803	0.809300	0.864900	0.253200
O8041	O804	0.797100	0.865400	0.199600
O8051	O805	0.836500	0.842700	0.218100
O8061	O806	0.836800	0.971700	0.285900
O8071	O807	0.830400	0.944600	0.167800
O8081	O808	0.882000	0.973400	0.330000
O8091	O809	0.829500	0.893500	0.217100
O8101	O810	0.866100	0.926600	0.199600
O8111	O811	0.841300	0.969500	0.211700
O8121	O812	0.872500	0.972100	0.178300
Al1751	Al175	0.329900	0.366200	0.280500
Al1761	Al176	0.355800	0.461600	0.311200
Al1771	Al177	0.361600	0.404700	0.222400
P1751	P175	0.370400	0.411200	0.281100
P1761	P176	0.316200	0.365300	0.220800
P1771	P177	0.351700	0.454000	0.188300
O8131	O813	0.373900	0.419100	0.250400
O8141	O814	0.387300	0.385900	0.287000
O8151	O815	0.340900	0.398300	0.281300
O8161	O816	0.371200	0.434100	0.298800
O8171	O817	0.309300	0.364900	0.253200
O8181	O818	0.297100	0.365400	0.199600
O8191	O819	0.336500	0.342700	0.218100
O8201	O820	0.336800	0.471700	0.285900
O8211	O821	0.330400	0.444600	0.167800
O8221	O822	0.382000	0.473400	0.330000
O8231	O823	0.329500	0.393500	0.217100
O8241	O824	0.366100	0.426600	0.199600
O8251	O825	0.341300	0.469500	0.211700
O8261	O826	0.372500	0.472100	0.178300
Al1781	Al178	0.329900	0.866200	0.780500
Al1791	Al179	0.355800	0.961600	0.811200
Al1801	Al180	0.361600	0.904700	0.722400
P1781	P178	0.370400	0.911200	0.781100
P1791	P179	0.316200	0.865300	0.720800
P1801	P180	0.351700	0.954000	0.688300
O8271	O827	0.373900	0.919100	0.750400
O8281	O828	0.387300	0.885900	0.787000
O8291	O829	0.340900	0.898300	0.781300
O8301	O830	0.371200	0.934100	0.798800
O8311	O831	0.309300	0.864900	0.753200
O8321	O832	0.297100	0.865400	0.699600
O8331	O833	0.336500	0.842700	0.718100
O8341	O834	0.336800	0.971700	0.785900
O8351	O835	0.330400	0.944600	0.667800
O8361	O836	0.382000	0.973400	0.830000
O8371	O837	0.329500	0.893500	0.717100
O8381	O838	0.366100	0.926600	0.699600
O8391	O839	0.341300	0.969500	0.711700
O8401	O840	0.372500	0.972100	0.678300
Al1811	Al181	0.170100	0.633800	0.780500
Al1821	Al182	0.144200	0.538400	0.811200
Al1831	Al183	0.138400	0.595300	0.722400
P1811	P181	0.129600	0.588800	0.781100
P1821	P182	0.183800	0.634700	0.720800
P1831	P183	0.148300	0.546000	0.688300
O8411	O841	0.126100	0.580900	0.750400
O8421	O842	0.112700	0.614100	0.787000
O8431	O843	0.159100	0.601700	0.781300
O8441	O844	0.128800	0.565900	0.798800
O8451	O845	0.190700	0.635100	0.753200
O8461	O846	0.202900	0.634600	0.699600
O8471	O847	0.163500	0.657300	0.718100
O8481	O848	0.163200	0.528300	0.785900
O8491	O849	0.169600	0.555400	0.667800
O8501	O850	0.118000	0.526600	0.830000
O8511	O851	0.170500	0.606500	0.717100
O8521	O852	0.133900	0.573400	0.699600
O8531	O853	0.158700	0.530500	0.711700
O8541	O854	0.127500	0.527900	0.678300
Al1841	Al184	0.170100	0.133800	0.280500
Al1851	Al185	0.144200	0.038400	0.311200
Al1861	Al186	0.138400	0.095300	0.222400
P1841	P184	0.129600	0.088800	0.281100
P1851	P185	0.183800	0.134700	0.220800
P1861	P186	0.148300	0.046000	0.188300
O8551	O855	0.126100	0.080900	0.250400
O8561	O856	0.112700	0.114100	0.287000
O8571	O857	0.159100	0.101700	0.281300
O8581	O858	0.128800	0.065900	0.298800
O8591	O859	0.190700	0.135100	0.253200
O8601	O860	0.202900	0.134600	0.199600
O8611	O861	0.163500	0.157300	0.218100
O8621	O862	0.163200	0.028300	0.285900
O8631	O863	0.169600	0.055400	0.167800
O8641	O864	0.118000	0.026600	0.330000
O8651	O865	0.170500	0.106500	0.217100
O8661	O866	0.133900	0.073400	0.199600
O8671	O867	0.158700	0.030500	0.211700
O8681	O868	0.127500	0.027900	0.178300
Al1871	Al187	0.670100	0.633800	0.280500
Al1881	Al188	0.644200	0.538400	0.311200
Al1891	Al189	0.638400	0.595300	0.222400
P1871	P187	0.629600	0.588800	0.281100
P1881	P188	0.683800	0.634700	0.220800
P1891	P189	0.648300	0.546000	0.188300
O8691	O869	0.626100	0.580900	0.250400
O8701	O870	0.612700	0.614100	0.287000
O8711	O871	0.659100	0.601700	0.281300
O8721	O872	0.628800	0.565900	0.298800
O8731	O873	0.690700	0.635100	0.253200
O8741	O874	0.702900	0.634600	0.199600
O8751	O875	0.663500	0.657300	0.218100
O8761	O876	0.663200	0.528300	0.285900
O8771	O877	0.669600	0.555400	0.167800
O8781	O878	0.618000	0.526600	0.330000
O8791	O879	0.670500	0.606500	0.217100
O8801	O880	0.633900	0.573400	0.199600
O8811	O881	0.658700	0.530500	0.211700
O8821	O882	0.627500	0.527900	0.178300
Al1901	Al190	0.670100	0.133800	0.780500
Al1911	Al191	0.644200	0.038400	0.811200
Al1921	Al192	0.638400	0.095300	0.722400
P1901	P190	0.629600	0.088800	0.781100
P1911	P191	0.683800	0.134700	0.720800
P1921	P192	0.648300	0.046000	0.688300
O8831	O883	0.626100	0.080900	0.750400
O8841	O884	0.612700	0.114100	0.787000
O8851	O885	0.659100	0.101700	0.781300
O8861	O886	0.628800	0.065900	0.798800
O8871	O887	0.690700	0.135100	0.753200
O8881	O888	0.702900	0.134600	0.699600
O8891	O889	0.663500	0.157300	0.718100
O8901	O890	0.663200	0.028300	0.785900
O8911	O891	0.669600	0.055400	0.667800
O8921	O892	0.618000	0.026600	0.830000
O8931	O893	0.670500	0.106500	0.717100
O8941	O894	0.633900	0.073400	0.699600
O8951	O895	0.658700	0.030500	0.711700
O8961	O896	0.627500	0.027900	0.678300
Al1931	Al193	0.633800	0.780500	0.170100
Al1941	Al194	0.538400	0.811200	0.144200
Al1951	Al195	0.595300	0.722400	0.138400
P1931	P193	0.588800	0.781100	0.129600
P1941	P194	0.634700	0.720800	0.183800
P1951	P195	0.546000	0.688300	0.148300
O8971	O897	0.580900	0.750400	0.126100
O8981	O898	0.614100	0.787000	0.112700
O8991	O899	0.601700	0.781300	0.159100
O9001	O900	0.565900	0.798800	0.128800
O9011	O901	0.635100	0.753200	0.190700
O9021	O902	0.634600	0.699600	0.202900
O9031	O903	0.657300	0.718100	0.163500
O9041	O904	0.528300	0.785900	0.163200
O9051	O905	0.555400	0.667800	0.169600
O9061	O906	0.526600	0.830000	0.118000
O9071	O907	0.606500	0.717100	0.170500
O9081	O908	0.573400	0.699600	0.133900
O9091	O909	0.530500	0.711700	0.158700
O9101	O910	0.527900	0.678300	0.127500
Al1961	Al196	0.633800	0.280500	0.670100
Al1971	Al197	0.538400	0.311200	0.644200
Al1981	Al198	0.595300	0.222400	0.638400
P1961	P196	0.588800	0.281100	0.629600
P1971	P197	0.634700	0.220800	0.683800
P1981	P198	0.546000	0.188300	0.648300
O9111	O911	0.580900	0.250400	0.626100
O9121	O912	0.614100	0.287000	0.612700
O9131	O913	0.601700	0.281300	0.659100
O9141	O914	0.565900	0.298800	0.628800
O9151	O915	0.635100	0.253200	0.690700
O9161	O916	0.634600	0.199600	0.702900
O9171	O917	0.657300	0.218100	0.663500
O9181	O918	0.528300	0.285900	0.663200
O9191	O919	0.555400	0.167800	0.669600
O9201	O920	0.526600	0.330000	0.618000
O9211	O921	0.606500	0.217100	0.670500
O9221	O922	0.573400	0.199600	0.633900
O9231	O923	0.530500	0.211700	0.658700
O9241	O924	0.527900	0.178300	0.627500
Al1991	Al199	0.133800	0.780500	0.670100
Al2001	Al200	0.038400	0.811200	0.644200
Al2011	Al201	0.095300	0.722400	0.638400
P1991	P199	0.088800	0.781100	0.629600
P2001	P200	0.134700	0.720800	0.683800
P2011	P201	0.046000	0.688300	0.648300
O9251	O925	0.080900	0.750400	0.626100
O9261	O926	0.114100	0.787000	0.612700
O9271	O927	0.101700	0.781300	0.659100
O9281	O928	0.065900	0.798800	0.628800
O9291	O929	0.135100	0.753200	0.690700
O9301	O930	0.134600	0.699600	0.702900
O9311	O931	0.157300	0.718100	0.663500
O9321	O932	0.028300	0.785900	0.663200
O9331	O933	0.055400	0.667800	0.669600
O9341	O934	0.026600	0.830000	0.618000
O9351	O935	0.106500	0.717100	0.670500
O9361	O936	0.073400	0.699600	0.633900
O9371	O937	0.030500	0.711700	0.658700
O9381	O938	0.027900	0.678300	0.627500
Al2021	Al202	0.133800	0.280500	0.170100
Al2031	Al203	0.038400	0.311200	0.144200
Al2041	Al204	0.095300	0.222400	0.138400
P2021	P202	0.088800	0.281100	0.129600
P2031	P203	0.134700	0.220800	0.183800
P2041	P204	0.046000	0.188300	0.148300
O9391	O939	0.080900	0.250400	0.126100
O9401	O940	0.114100	0.287000	0.112700
O9411	O941	0.101700	0.281300	0.159100
O9421	O942	0.065900	0.298800	0.128800
O9431	O943	0.135100	0.253200	0.190700
O9441	O944	0.134600	0.199600	0.202900
O9451	O945	0.157300	0.218100	0.163500
O9461	O946	0.028300	0.285900	0.163200
O9471	O947	0.055400	0.167800	0.169600
O9481	O948	0.026600	0.330000	0.118000
O9491	O949	0.106500	0.217100	0.170500
O9501	O950	0.073400	0.199600	0.133900
O9511	O951	0.030500	0.211700	0.158700
O9521	O952	0.027900	0.178300	0.127500
Al2051	Al205	0.366200	0.780500	0.829900
Al2061	Al206	0.461600	0.811200	0.855800
Al2071	Al207	0.404700	0.722400	0.861600
P2051	P205	0.411200	0.781100	0.870400
P2061	P206	0.365300	0.720800	0.816200
P2071	P207	0.454000	0.688300	0.851700
O9531	O953	0.419100	0.750400	0.873900
O9541	O954	0.385900	0.787000	0.887300
O9551	O955	0.398300	0.781300	0.840900
O9561	O956	0.434100	0.798800	0.871200
O9571	O957	0.364900	0.753200	0.809300
O9581	O958	0.365400	0.699600	0.797100
O9591	O959	0.342700	0.718100	0.836500
O9601	O960	0.471700	0.785900	0.836800
O9611	O961	0.444600	0.667800	0.830400
O9621	O962	0.473400	0.830000	0.882000
O9631	O963	0.393500	0.717100	0.829500
O9641	O964	0.426600	0.699600	0.866100
O9651	O965	0.469500	0.711700	0.841300
O9661	O966	0.472100	0.678300	0.872500
Al2081	Al208	0.366200	0.280500	0.329900
Al2091	Al209	0.461600	0.311200	0.355800
Al2101	Al210	0.404700	0.222400	0.361600
P2081	P208	0.411200	0.281100	0.370400
P2091	P209	0.365300	0.220800	0.316200
P2101	P210	0.454000	0.188300	0.351700
O9671	O967	0.419100	0.250400	0.373900
O9681	O968	0.385900	0.287000	0.387300
O9691	O969	0.398300	0.281300	0.340900
O9701	O970	0.434100	0.298800	0.371200
O9711	O971	0.364900	0.253200	0.309300
O9721	O972	0.365400	0.199600	0.297100
O9731	O973	0.342700	0.218100	0.336500
O9741	O974	0.471700	0.285900	0.336800
O9751	O975	0.444600	0.167800	0.330400
O9761	O976	0.473400	0.330000	0.382000
O9771	O977	0.393500	0.217100	0.329500
O9781	O978	0.426600	0.199600	0.366100
O9791	O979	0.469500	0.211700	0.341300
O9801	O980	0.472100	0.178300	0.372500
Al2111	Al211	0.866200	0.780500	0.329900
Al2121	Al212	0.961600	0.811200	0.355800
Al2131	Al213	0.904700	0.722400	0.361600
P2111	P211	0.911200	0.781100	0.370400
P2121	P212	0.865300	0.720800	0.316200
P2131	P213	0.954000	0.688300	0.351700
O9811	O981	0.919100	0.750400	0.373900
O9821	O982	0.885900	0.787000	0.387300
O9831	O983	0.898300	0.781300	0.340900
O9841	O984	0.934100	0.798800	0.371200
O9851	O985	0.864900	0.753200	0.309300
O9861	O986	0.865400	0.699600	0.297100
O9871	O987	0.842700	0.718100	0.336500
O9881	O988	0.971700	0.785900	0.336800
O9891	O989	0.944600	0.667800	0.330400
O9901	O990	0.973400	0.830000	0.382000
O9911	O991	0.893500	0.717100	0.329500
O9921	O992	0.926600	0.699600	0.366100
O9931	O993	0.969500	0.711700	0.341300
O9941	O994	0.972100	0.678300	0.372500
Al2141	Al214	0.866200	0.280500	0.829900
Al2151	Al215	0.961600	0.311200	0.855800
Al2161	Al216	0.904700	0.222400	0.861600
P2141	P214	0.911200	0.281100	0.870400
P2151	P215	0.865300	0.220800	0.816200
P2161	P216	0.954000	0.188300	0.851700
O9951	O995	0.919100	0.250400	0.873900
O9961	O996	0.885900	0.287000	0.887300
O9971	O997	0.898300	0.281300	0.840900
O9981	O998	0.934100	0.298800	0.871200
O9991	O999	0.864900	0.253200	0.809300
O10001	O1000	0.865400	0.199600	0.797100
O10011	O1001	0.842700	0.218100	0.836500
O10021	O1002	0.971700	0.285900	0.836800
O10031	O1003	0.944600	0.167800	0.830400
O10041	O1004	0.973400	0.330000	0.882000
O10051	O1005	0.893500	0.217100	0.829500
O10061	O1006	0.926600	0.199600	0.866100
O10071	O1007	0.969500	0.211700	0.841300
O10081	O1008	0.972100	0.178300	0.872500
Al2171	Al217	0.366200	0.219500	0.170100
Al2181	Al218	0.461600	0.188800	0.144200
Al2191	Al219	0.404700	0.277600	0.138400
P2171	P217	0.411200	0.218900	0.129600
P2181	P218	0.365300	0.279200	0.183800
P2191	P219	0.454000	0.311700	0.148300
O10091	O1009	0.419100	0.249600	0.126100
O10101	O1010	0.385900	0.213000	0.112700
O10111	O1011	0.398300	0.218700	0.159100
O10121	O1012	0.434100	0.201200	0.128800
O10131	O1013	0.364900	0.246800	0.190700
O10141	O1014	0.365400	0.300400	0.202900
O10151	O1015	0.342700	0.281900	0.163500
O10161	O1016	0.471700	0.214100	0.163200
O10171	O1017	0.444600	0.332200	0.169600
O10181	O1018	0.473400	0.170000	0.118000
O10191	O1019	0.393500	0.282900	0.170500
O10201	O1020	0.426600	0.300400	0.133900
O10211	O1021	0.469500	0.288300	0.158700
O10221	O1022	0.472100	0.321700	0.127500
Al2201	Al220	0.366200	0.719500	0.670100
Al2211	Al221	0.461600	0.688800	0.644200
Al2221	Al222	0.404700	0.777600	0.638400
P2201	P220	0.411200	0.718900	0.629600
P2211	P221	0.365300	0.779200	0.683800
P2221	P222	0.454000	0.811700	0.648300
O10231	O1023	0.419100	0.749600	0.626100
O10241	O1024	0.385900	0.713000	0.612700
O10251	O1025	0.398300	0.718700	0.659100
O10261	O1026	0.434100	0.701200	0.628800
O10271	O1027	0.364900	0.746800	0.690700
O10281	O1028	0.365400	0.800400	0.702900
O10291	O1029	0.342700	0.781900	0.663500
O10301	O1030	0.471700	0.714100	0.663200
O10311	O1031	0.444600	0.832200	0.669600
O10321	O1032	0.473400	0.670000	0.618000
O10331	O1033	0.393500	0.782900	0.670500
O10341	O1034	0.426600	0.800400	0.633900
O10351	O1035	0.469500	0.788300	0.658700
O10361	O1036	0.472100	0.821700	0.627500
Al2231	Al223	0.866200	0.219500	0.670100
Al2241	Al224	0.961600	0.188800	0.644200
Al2251	Al225	0.904700	0.277600	0.638400
P2231	P223	0.911200	0.218900	0.629600
P2241	P224	0.865300	0.279200	0.683800
P2251	P225	0.954000	0.311700	0.648300
O10371	O1037	0.919100	0.249600	0.626100
O10381	O1038	0.885900	0.213000	0.612700
O10391	O1039	0.898300	0.218700	0.659100
O10401	O1040	0.934100	0.201200	0.628800
O10411	O1041	0.864900	0.246800	0.690700
O10421	O1042	0.865400	0.300400	0.702900
O10431	O1043	0.842700	0.281900	0.663500
O10441	O1044	0.971700	0.214100	0.663200
O10451	O1045	0.944600	0.332200	0.669600
O10461	O1046	0.973400	0.170000	0.618000
O10471	O1047	0.893500	0.282900	0.670500
O10481	O1048	0.926600	0.300400	0.633900
O10491	O1049	0.969500	0.288300	0.658700
O10501	O1050	0.972100	0.321700	0.627500
Al2261	Al226	0.866200	0.719500	0.170100
Al2271	Al227	0.961600	0.688800	0.144200
Al2281	Al228	0.904700	0.777600	0.138400
P2261	P226	0.911200	0.718900	0.129600
P2271	P227	0.865300	0.779200	0.183800
P2281	P228	0.954000	0.811700	0.148300
O10511	O1051	0.919100	0.749600	0.126100
O10521	O1052	0.885900	0.713000	0.112700
O10531	O1053	0.898300	0.718700	0.159100
O10541	O1054	0.934100	0.701200	0.128800
O10551	O1055	0.864900	0.746800	0.190700
O10561	O1056	0.865400	0.800400	0.202900
O10571	O1057	0.842700	0.781900	0.163500
O10581	O1058	0.971700	0.714100	0.163200
O10591	O1059	0.944600	0.832200	0.169600
O10601	O1060	0.973400	0.670000	0.118000
O10611	O1061	0.893500	0.782900	0.170500
O10621	O1062	0.926600	0.800400	0.133900
O10631	O1063	0.969500	0.788300	0.158700
O10641	O1064	0.972100	0.821700	0.127500
Al2291	Al229	0.633800	0.219500	0.829900
Al2301	Al230	0.538400	0.188800	0.855800
Al2311	Al231	0.595300	0.277600	0.861600
P2291	P229	0.588800	0.218900	0.870400
P2301	P230	0.634700	0.279200	0.816200
P2311	P231	0.546000	0.311700	0.851700
O10651	O1065	0.580900	0.249600	0.873900
O10661	O1066	0.614100	0.213000	0.887300
O10671	O1067	0.601700	0.218700	0.840900
O10681	O1068	0.565900	0.201200	0.871200
O10691	O1069	0.635100	0.246800	0.809300
O10701	O1070	0.634600	0.300400	0.797100
O10711	O1071	0.657300	0.281900	0.836500
O10721	O1072	0.528300	0.214100	0.836800
O10731	O1073	0.555400	0.332200	0.830400
O10741	O1074	0.526600	0.170000	0.882000
O10751	O1075	0.606500	0.282900	0.829500
O10761	O1076	0.573400	0.300400	0.866100
O10771	O1077	0.530500	0.288300	0.841300
O10781	O1078	0.527900	0.321700	0.872500
Al2321	Al232	0.633800	0.719500	0.329900
Al2331	Al233	0.538400	0.688800	0.355800
Al2341	Al234	0.595300	0.777600	0.361600
P2321	P232	0.588800	0.718900	0.370400
P2331	P233	0.634700	0.779200	0.316200
P2341	P234	0.546000	0.811700	0.351700
O10791	O1079	0.580900	0.749600	0.373900
O10801	O1080	0.614100	0.713000	0.387300
O10811	O1081	0.601700	0.718700	0.340900
O10821	O1082	0.565900	0.701200	0.371200
O10831	O1083	0.635100	0.746800	0.309300
O10841	O1084	0.634600	0.800400	0.297100
O10851	O1085	0.657300	0.781900	0.336500
O10861	O1086	0.528300	0.714100	0.336800
O10871	O1087	0.555400	0.832200	0.330400
O10881	O1088	0.526600	0.670000	0.382000
O10891	O1089	0.606500	0.782900	0.329500
O10901	O1090	0.573400	0.800400	0.366100
O10911	O1091	0.530500	0.788300	0.341300
O10921	O1092	0.527900	0.821700	0.372500
Al2351	Al235	0.133800	0.219500	0.329900
Al2361	Al236	0.038400	0.188800	0.355800
Al2371	Al237	0.095300	0.277600	0.361600
P2351	P235	0.088800	0.218900	0.370400
P2361	P236	0.134700	0.279200	0.316200
P2371	P237	0.046000	0.311700	0.351700
O10931	O1093	0.080900	0.249600	0.373900
O10941	O1094	0.114100	0.213000	0.387300
O10951	O1095	0.101700	0.218700	0.340900
O10961	O1096	0.065900	0.201200	0.371200
O10971	O1097	0.135100	0.246800	0.309300
O10981	O1098	0.134600	0.300400	0.297100
O10991	O1099	0.157300	0.281900	0.336500
O11001	O1100	0.028300	0.214100	0.336800
O11011	O1101	0.055400	0.332200	0.330400
O11021	O1102	0.026600	0.170000	0.382000
O11031	O1103	0.106500	0.282900	0.329500
O11041	O1104	0.073400	0.300400	0.366100
O11051	O1105	0.030500	0.288300	0.341300
O11061	O1106	0.027900	0.321700	0.372500
Al2381	Al238	0.133800	0.719500	0.829900
Al2391	Al239	0.038400	0.688800	0.855800
Al2401	Al240	0.095300	0.777600	0.861600
P2381	P238	0.088800	0.718900	0.870400
P2391	P239	0.134700	0.779200	0.816200
P2401	P240	0.046000	0.811700	0.851700
O11071	O1107	0.080900	0.749600	0.873900
O11081	O1108	0.114100	0.713000	0.887300
O11091	O1109	0.101700	0.718700	0.840900
O11101	O1110	0.065900	0.701200	0.871200
O11111	O1111	0.135100	0.746800	0.809300
O11121	O1112	0.134600	0.800400	0.797100
O11131	O1113	0.157300	0.781900	0.836500
O11141	O1114	0.028300	0.714100	0.836800
O11151	O1115	0.055400	0.832200	0.830400
O11161	O1116	0.026600	0.670000	0.882000
O11171	O1117	0.106500	0.782900	0.829500
O11181	O1118	0.073400	0.800400	0.866100
O11191	O1119	0.030500	0.788300	0.841300
O11201	O1120	0.027900	0.821700	0.872500
Al2411	Al241	0.780500	0.829900	0.366200
Al2421	Al242	0.811200	0.855800	0.461600
Al2431	Al243	0.722400	0.861600	0.404700
P2411	P241	0.781100	0.870400	0.411200
P2421	P242	0.720800	0.816200	0.365300
P2431	P243	0.688300	0.851700	0.454000
O11211	O1121	0.750400	0.873900	0.419100
O11221	O1122	0.787000	0.887300	0.385900
O11231	O1123	0.781300	0.840900	0.398300
O11241	O1124	0.798800	0.871200	0.434100
O11251	O1125	0.753200	0.809300	0.364900
O11261	O1126	0.699600	0.797100	0.365400
O11271	O1127	0.718100	0.836500	0.342700
O11281	O1128	0.785900	0.836800	0.471700
O11291	O1129	0.667800	0.830400	0.444600
O11301	O1130	0.830000	0.882000	0.473400
O11311	O1131	0.717100	0.829500	0.393500
O11321	O1132	0.699600	0.866100	0.426600
O11331	O1133	0.711700	0.841300	0.469500
O11341	O1134	0.678300	0.872500	0.472100
Al2441	Al244	0.780500	0.329900	0.866200
Al2451	Al245	0.811200	0.355800	0.961600
Al2461	Al246	0.722400	0.361600	0.904700
P2441	P244	0.781100	0.370400	0.911200
P2451	P245	0.720800	0.316200	0.865300
P2461	P246	0.688300	0.351700	0.954000
O11351	O1135	0.750400	0.373900	0.919100
O11361	O1136	0.787000	0.387300	0.885900
O11371	O1137	0.781300	0.340900	0.898300
O11381	O1138	0.798800	0.371200	0.934100
O11391	O1139	0.753200	0.309300	0.864900
O11401	O1140	0.699600	0.297100	0.865400
O11411	O1141	0.718100	0.336500	0.842700
O11421	O1142	0.785900	0.336800	0.971700
O11431	O1143	0.667800	0.330400	0.944600
O11441	O1144	0.830000	0.382000	0.973400
O11451	O1145	0.717100	0.329500	0.893500
O11461	O1146	0.699600	0.366100	0.926600
O11471	O1147	0.711700	0.341300	0.969500
O11481	O1148	0.678300	0.372500	0.972100
Al2471	Al247	0.280500	0.829900	0.866200
Al2481	Al248	0.311200	0.855800	0.961600
Al2491	Al249	0.222400	0.861600	0.904700
P2471	P247	0.281100	0.870400	0.911200
P2481	P248	0.220800	0.816200	0.865300
P2491	P249	0.188300	0.851700	0.954000
O11491	O1149	0.250400	0.873900	0.919100
O11501	O1150	0.287000	0.887300	0.885900
O11511	O1151	0.281300	0.840900	0.898300
O11521	O1152	0.298800	0.871200	0.934100
O11531	O1153	0.253200	0.809300	0.864900
O11541	O1154	0.199600	0.797100	0.865400
O11551	O1155	0.218100	0.836500	0.842700
O11561	O1156	0.285900	0.836800	0.971700
O11571	O1157	0.167800	0.830400	0.944600
O11581	O1158	0.330000	0.882000	0.973400
O11591	O1159	0.217100	0.829500	0.893500
O11601	O1160	0.199600	0.866100	0.926600
O11611	O1161	0.211700	0.841300	0.969500
O11621	O1162	0.178300	0.872500	0.972100
Al2501	Al250	0.280500	0.329900	0.366200
Al2511	Al251	0.311200	0.355800	0.461600
Al2521	Al252	0.222400	0.361600	0.404700
P2501	P250	0.281100	0.370400	0.411200
P2511	P251	0.220800	0.316200	0.365300
P2521	P252	0.188300	0.351700	0.454000
O11631	O1163	0.250400	0.373900	0.419100
O11641	O1164	0.287000	0.387300	0.385900
O11651	O1165	0.281300	0.340900	0.398300
O11661	O1166	0.298800	0.371200	0.434100
O11671	O1167	0.253200	0.309300	0.364900
O11681	O1168	0.199600	0.297100	0.365400
O11691	O1169	0.218100	0.336500	0.342700
O11701	O1170	0.285900	0.336800	0.471700
O11711	O1171	0.167800	0.330400	0.444600
O11721	O1172	0.330000	0.382000	0.473400
O11731	O1173	0.217100	0.329500	0.393500
O11741	O1174	0.199600	0.366100	0.426600
O11751	O1175	0.211700	0.341300	0.469500
O11761	O1176	0.178300	0.372500	0.472100
Al2531	Al253	0.780500	0.170100	0.633800
Al2541	Al254	0.811200	0.144200	0.538400
Al2551	Al255	0.722400	0.138400	0.595300
P2531	P253	0.781100	0.129600	0.588800
P2541	P254	0.720800	0.183800	0.634700
P2551	P255	0.688300	0.148300	0.546000
O11771	O1177	0.750400	0.126100	0.580900
O11781	O1178	0.787000	0.112700	0.614100
O11791	O1179	0.781300	0.159100	0.601700
O11801	O1180	0.798800	0.128800	0.565900
O11811	O1181	0.753200	0.190700	0.635100
O11821	O1182	0.699600	0.202900	0.634600
O11831	O1183	0.718100	0.163500	0.657300
O11841	O1184	0.785900	0.163200	0.528300
O11851	O1185	0.667800	0.169600	0.555400
O11861	O1186	0.830000	0.118000	0.526600
O11871	O1187	0.717100	0.170500	0.606500
O11881	O1188	0.699600	0.133900	0.573400
O11891	O1189	0.711700	0.158700	0.530500
O11901	O1190	0.678300	0.127500	0.527900
Al2561	Al256	0.780500	0.670100	0.133800
Al2571	Al257	0.811200	0.644200	0.038400
Al2581	Al258	0.722400	0.638400	0.095300
P2561	P256	0.781100	0.629600	0.088800
P2571	P257	0.720800	0.683800	0.134700
P2581	P258	0.688300	0.648300	0.046000
O11911	O1191	0.750400	0.626100	0.080900
O11921	O1192	0.787000	0.612700	0.114100
O11931	O1193	0.781300	0.659100	0.101700
O11941	O1194	0.798800	0.628800	0.065900
O11951	O1195	0.753200	0.690700	0.135100
O11961	O1196	0.699600	0.702900	0.134600
O11971	O1197	0.718100	0.663500	0.157300
O11981	O1198	0.785900	0.663200	0.028300
O11991	O1199	0.667800	0.669600	0.055400
O12001	O1200	0.830000	0.618000	0.026600
O12011	O1201	0.717100	0.670500	0.106500
O12021	O1202	0.699600	0.633900	0.073400
O12031	O1203	0.711700	0.658700	0.030500
O12041	O1204	0.678300	0.627500	0.027900
Al2591	Al259	0.280500	0.170100	0.133800
Al2601	Al260	0.311200	0.144200	0.038400
Al2611	Al261	0.222400	0.138400	0.095300
P2591	P259	0.281100	0.129600	0.088800
P2601	P260	0.220800	0.183800	0.134700
P2611	P261	0.188300	0.148300	0.046000
O12051	O1205	0.250400	0.126100	0.080900
O12061	O1206	0.287000	0.112700	0.114100
O12071	O1207	0.281300	0.159100	0.101700
O12081	O1208	0.298800	0.128800	0.065900
O12091	O1209	0.253200	0.190700	0.135100
O12101	O1210	0.199600	0.202900	0.134600
O12111	O1211	0.218100	0.163500	0.157300
O12121	O1212	0.285900	0.163200	0.028300
O12131	O1213	0.167800	0.169600	0.055400
O12141	O1214	0.330000	0.118000	0.026600
O12151	O1215	0.217100	0.170500	0.106500
O12161	O1216	0.199600	0.133900	0.073400
O12171	O1217	0.211700	0.158700	0.030500
O12181	O1218	0.178300	0.127500	0.027900
Al2621	Al262	0.280500	0.670100	0.633800
Al2631	Al263	0.311200	0.644200	0.538400
Al2641	Al264	0.222400	0.638400	0.595300
P2621	P262	0.281100	0.629600	0.588800
P2631	P263	0.220800	0.683800	0.634700
P2641	P264	0.188300	0.648300	0.546000
O12191	O1219	0.250400	0.626100	0.580900
O12201	O1220	0.287000	0.612700	0.614100
O12211	O1221	0.281300	0.659100	0.601700
O12221	O1222	0.298800	0.628800	0.565900
O12231	O1223	0.253200	0.690700	0.635100
O12241	O1224	0.199600	0.702900	0.634600
O12251	O1225	0.218100	0.663500	0.657300
O12261	O1226	0.285900	0.663200	0.528300
O12271	O1227	0.167800	0.669600	0.555400
O12281	O1228	0.330000	0.618000	0.526600
O12291	O1229	0.217100	0.670500	0.606500
O12301	O1230	0.199600	0.633900	0.573400
O12311	O1231	0.211700	0.658700	0.530500
O12321	O1232	0.178300	0.627500	0.527900
Al2651	Al265	0.219500	0.829900	0.633800
Al2661	Al266	0.188800	0.855800	0.538400
Al2671	Al267	0.277600	0.861600	0.595300
P2651	P265	0.218900	0.870400	0.588800
P2661	P266	0.279200	0.816200	0.634700
P2671	P267	0.311700	0.851700	0.546000
O12331	O1233	0.249600	0.873900	0.580900
O12341	O1234	0.213000	0.887300	0.614100
O12351	O1235	0.218700	0.840900	0.601700
O12361	O1236	0.201200	0.871200	0.565900
O12371	O1237	0.246800	0.809300	0.635100
O12381	O1238	0.300400	0.797100	0.634600
O12391	O1239	0.281900	0.836500	0.657300
O12401	O1240	0.214100	0.836800	0.528300
O12411	O1241	0.332200	0.830400	0.555400
O12421	O1242	0.170000	0.882000	0.526600
O12431	O1243	0.282900	0.829500	0.606500
O12441	O1244	0.300400	0.866100	0.573400
O12451	O1245	0.288300	0.841300	0.530500
O12461	O1246	0.321700	0.872500	0.527900
Al2681	Al268	0.219500	0.329900	0.133800
Al2691	Al269	0.188800	0.355800	0.038400
Al2701	Al270	0.277600	0.361600	0.095300
P2681	P268	0.218900	0.370400	0.088800
P2691	P269	0.279200	0.316200	0.134700
P2701	P270	0.311700	0.351700	0.046000
O12471	O1247	0.249600	0.373900	0.080900
O12481	O1248	0.213000	0.387300	0.114100
O12491	O1249	0.218700	0.340900	0.101700
O12501	O1250	0.201200	0.371200	0.065900
O12511	O1251	0.246800	0.309300	0.135100
O12521	O1252	0.300400	0.297100	0.134600
O12531	O1253	0.281900	0.336500	0.157300
O12541	O1254	0.214100	0.336800	0.028300
O12551	O1255	0.332200	0.330400	0.055400
O12561	O1256	0.170000	0.382000	0.026600
O12571	O1257	0.282900	0.329500	0.106500
O12581	O1258	0.300400	0.366100	0.073400
O12591	O1259	0.288300	0.341300	0.030500
O12601	O1260	0.321700	0.372500	0.027900
Al2711	Al271	0.719500	0.829900	0.133800
Al2721	Al272	0.688800	0.855800	0.038400
Al2731	Al273	0.777600	0.861600	0.095300
P2711	P271	0.718900	0.870400	0.088800
P2721	P272	0.779200	0.816200	0.134700
P2731	P273	0.811700	0.851700	0.046000
O12611	O1261	0.749600	0.873900	0.080900
O12621	O1262	0.713000	0.887300	0.114100
O12631	O1263	0.718700	0.840900	0.101700
O12641	O1264	0.701200	0.871200	0.065900
O12651	O1265	0.746800	0.809300	0.135100
O12661	O1266	0.800400	0.797100	0.134600
O12671	O1267	0.781900	0.836500	0.157300
O12681	O1268	0.714100	0.836800	0.028300
O12691	O1269	0.832200	0.830400	0.055400
O12701	O1270	0.670000	0.882000	0.026600
O12711	O1271	0.782900	0.829500	0.106500
O12721	O1272	0.800400	0.866100	0.073400
O12731	O1273	0.788300	0.841300	0.030500
O12741	O1274	0.821700	0.872500	0.027900
Al2741	Al274	0.719500	0.329900	0.633800
Al2751	Al275	0.688800	0.355800	0.538400
Al2761	Al276	0.777600	0.361600	0.595300
P2741	P274	0.718900	0.370400	0.588800
P2751	P275	0.779200	0.316200	0.634700
P2761	P276	0.811700	0.351700	0.546000
O12751	O1275	0.749600	0.373900	0.580900
O12761	O1276	0.713000	0.387300	0.614100
O12771	O1277	0.718700	0.340900	0.601700
O12781	O1278	0.701200	0.371200	0.565900
O12791	O1279	0.746800	0.309300	0.635100
O12801	O1280	0.800400	0.297100	0.634600
O12811	O1281	0.781900	0.336500	0.657300
O12821	O1282	0.714100	0.336800	0.528300
O12831	O1283	0.832200	0.330400	0.555400
O12841	O1284	0.670000	0.382000	0.526600
O12851	O1285	0.782900	0.329500	0.606500
O12861	O1286	0.800400	0.366100	0.573400
O12871	O1287	0.788300	0.341300	0.530500
O12881	O1288	0.821700	0.372500	0.527900
Al2771	Al277	0.219500	0.170100	0.366200
Al2781	Al278	0.188800	0.144200	0.461600
Al2791	Al279	0.277600	0.138400	0.404700
P2771	P277	0.218900	0.129600	0.411200
P2781	P278	0.279200	0.183800	0.365300
P2791	P279	0.311700	0.148300	0.454000
O12891	O1289	0.249600	0.126100	0.419100
O12901	O1290	0.213000	0.112700	0.385900
O12911	O1291	0.218700	0.159100	0.398300
O12921	O1292	0.201200	0.128800	0.434100
O12931	O1293	0.246800	0.190700	0.364900
O12941	O1294	0.300400	0.202900	0.365400
O12951	O1295	0.281900	0.163500	0.342700
O12961	O1296	0.214100	0.163200	0.471700
O12971	O1297	0.332200	0.169600	0.444600
O12981	O1298	0.170000	0.118000	0.473400
O12991	O1299	0.282900	0.170500	0.393500
O13001	O1300	0.300400	0.133900	0.426600
O13011	O1301	0.288300	0.158700	0.469500
O13021	O1302	0.321700	0.127500	0.472100
Al2801	Al280	0.219500	0.670100	0.866200
Al2811	Al281	0.188800	0.644200	0.961600
Al2821	Al282	0.277600	0.638400	0.904700
P2801	P280	0.218900	0.629600	0.911200
P2811	P281	0.279200	0.683800	0.865300
P2821	P282	0.311700	0.648300	0.954000
O13031	O1303	0.249600	0.626100	0.919100
O13041	O1304	0.213000	0.612700	0.885900
O13051	O1305	0.218700	0.659100	0.898300
O13061	O1306	0.201200	0.628800	0.934100
O13071	O1307	0.246800	0.690700	0.864900
O13081	O1308	0.300400	0.702900	0.865400
O13091	O1309	0.281900	0.663500	0.842700
O13101	O1310	0.214100	0.663200	0.971700
O13111	O1311	0.332200	0.669600	0.944600
O13121	O1312	0.170000	0.618000	0.973400
O13131	O1313	0.282900	0.670500	0.893500
O13141	O1314	0.300400	0.633900	0.926600
O13151	O1315	0.288300	0.658700	0.969500
O13161	O1316	0.321700	0.627500	0.972100
Al2831	Al283	0.719500	0.170100	0.866200
Al2841	Al284	0.688800	0.144200	0.961600
Al2851	Al285	0.777600	0.138400	0.904700
P2831	P283	0.718900	0.129600	0.911200
P2841	P284	0.779200	0.183800	0.865300
P2851	P285	0.811700	0.148300	0.954000
O13171	O1317	0.749600	0.126100	0.919100
O13181	O1318	0.713000	0.112700	0.885900
O13191	O1319	0.718700	0.159100	0.898300
O13201	O1320	0.701200	0.128800	0.934100
O13211	O1321	0.746800	0.190700	0.864900
O13221	O1322	0.800400	0.202900	0.865400
O13231	O1323	0.781900	0.163500	0.842700
O13241	O1324	0.714100	0.163200	0.971700
O13251	O1325	0.832200	0.169600	0.944600
O13261	O1326	0.670000	0.118000	0.973400
O13271	O1327	0.782900	0.170500	0.893500
O13281	O1328	0.800400	0.133900	0.926600
O13291	O1329	0.788300	0.158700	0.969500
O13301	O1330	0.821700	0.127500	0.972100
Al2861	Al286	0.719500	0.670100	0.366200
Al2871	Al287	0.688800	0.644200	0.461600
Al2881	Al288	0.777600	0.638400	0.404700
P2861	P286	0.718900	0.629600	0.411200
P2871	P287	0.779200	0.683800	0.365300
P2881	P288	0.811700	0.648300	0.454000
O13311	O1331	0.749600	0.626100	0.419100
O13321	O1332	0.713000	0.612700	0.385900
O13331	O1333	0.718700	0.659100	0.398300
O13341	O1334	0.701200	0.628800	0.434100
O13351	O1335	0.746800	0.690700	0.364900
O13361	O1336	0.800400	0.702900	0.365400
O13371	O1337	0.781900	0.663500	0.342700
O13381	O1338	0.714100	0.663200	0.471700
O13391	O1339	0.832200	0.669600	0.444600
O13401	O1340	0.670000	0.618000	0.473400
O13411	O1341	0.782900	0.670500	0.393500
O13421	O1342	0.800400	0.633900	0.426600
O13431	O1343	0.788300	0.658700	0.469500
O13441	O1344	0.821700	0.627500	0.472100
Al2891	Al289	0.866200	0.670100	0.719500
Al2901	Al290	0.961600	0.644200	0.688800
Al2911	Al291	0.904700	0.638400	0.777600
P2891	P289	0.911200	0.629600	0.718900
P2901	P290	0.865300	0.683800	0.779200
P2911	P291	0.954000	0.648300	0.811700
O13451	O1345	0.919100	0.626100	0.749600
O13461	O1346	0.885900	0.612700	0.713000
O13471	O1347	0.898300	0.659100	0.718700
O13481	O1348	0.934100	0.628800	0.701200
O13491	O1349	0.864900	0.690700	0.746800
O13501	O1350	0.865400	0.702900	0.800400
O13511	O1351	0.842700	0.663500	0.781900
O13521	O1352	0.971700	0.663200	0.714100
O13531	O1353	0.944600	0.669600	0.832200
O13541	O1354	0.973400	0.618000	0.670000
O13551	O1355	0.893500	0.670500	0.782900
O13561	O1356	0.926600	0.633900	0.800400
O13571	O1357	0.969500	0.658700	0.788300
O13581	O1358	0.972100	0.627500	0.821700
Al2921	Al292	0.866200	0.170100	0.219500
Al2931	Al293	0.961600	0.144200	0.188800
Al2941	Al294	0.904700	0.138400	0.277600
P2921	P292	0.911200	0.129600	0.218900
P2931	P293	0.865300	0.183800	0.279200
P2941	P294	0.954000	0.148300	0.311700
O13591	O1359	0.919100	0.126100	0.249600
O13601	O1360	0.885900	0.112700	0.213000
O13611	O1361	0.898300	0.159100	0.218700
O13621	O1362	0.934100	0.128800	0.201200
O13631	O1363	0.864900	0.190700	0.246800
O13641	O1364	0.865400	0.202900	0.300400
O13651	O1365	0.842700	0.163500	0.281900
O13661	O1366	0.971700	0.163200	0.214100
O13671	O1367	0.944600	0.169600	0.332200
O13681	O1368	0.973400	0.118000	0.170000
O13691	O1369	0.893500	0.170500	0.282900
O13701	O1370	0.926600	0.133900	0.300400
O13711	O1371	0.969500	0.158700	0.288300
O13721	O1372	0.972100	0.127500	0.321700
Al2951	Al295	0.366200	0.670100	0.219500
Al2961	Al296	0.461600	0.644200	0.188800
Al2971	Al297	0.404700	0.638400	0.277600
P2951	P295	0.411200	0.629600	0.218900
P2961	P296	0.365300	0.683800	0.279200
P2971	P297	0.454000	0.648300	0.311700
O13731	O1373	0.419100	0.626100	0.249600
O13741	O1374	0.385900	0.612700	0.213000
O13751	O1375	0.398300	0.659100	0.218700
O13761	O1376	0.434100	0.628800	0.201200
O13771	O1377	0.364900	0.690700	0.246800
O13781	O1378	0.365400	0.702900	0.300400
O13791	O1379	0.342700	0.663500	0.281900
O13801	O1380	0.471700	0.663200	0.214100
O13811	O1381	0.444600	0.669600	0.332200
O13821	O1382	0.473400	0.618000	0.170000
O13831	O1383	0.393500	0.670500	0.282900
O13841	O1384	0.426600	0.633900	0.300400
O13851	O1385	0.469500	0.658700	0.288300
O13861	O1386	0.472100	0.627500	0.321700
Al2981	Al298	0.366200	0.170100	0.719500
Al2991	Al299	0.461600	0.144200	0.688800
Al3001	Al300	0.404700	0.138400	0.777600
P2981	P298	0.411200	0.129600	0.718900
P2991	P299	0.365300	0.183800	0.779200
P3001	P300	0.454000	0.148300	0.811700
O13871	O1387	0.419100	0.126100	0.749600
O13881	O1388	0.385900	0.112700	0.713000
O13891	O1389	0.398300	0.159100	0.718700
O13901	O1390	0.434100	0.128800	0.701200
O13911	O1391	0.364900	0.190700	0.746800
O13921	O1392	0.365400	0.202900	0.800400
O13931	O1393	0.342700	0.163500	0.781900
O13941	O1394	0.471700	0.163200	0.714100
O13951	O1395	0.444600	0.169600	0.832200
O13961	O1396	0.473400	0.118000	0.670000
O13971	O1397	0.393500	0.170500	0.782900
O13981	O1398	0.426600	0.133900	0.800400
O13991	O1399	0.469500	0.158700	0.788300
O14001	O1400	0.472100	0.127500	0.821700
Al3011	Al301	0.133800	0.329900	0.719500
Al3021	Al302	0.038400	0.355800	0.688800
Al3031	Al303	0.095300	0.361600	0.777600
P3011	P301	0.088800	0.370400	0.718900
P3021	P302	0.134700	0.316200	0.779200
P3031	P303	0.046000	0.351700	0.811700
O14011	O1401	0.080900	0.373900	0.749600
O14021	O1402	0.114100	0.387300	0.713000
O14031	O1403	0.101700	0.340900	0.718700
O14041	O1404	0.065900	0.371200	0.701200
O14051	O1405	0.135100	0.309300	0.746800
O14061	O1406	0.134600	0.297100	0.800400
O14071	O1407	0.157300	0.336500	0.781900
O14081	O1408	0.028300	0.336800	0.714100
O14091	O1409	0.055400	0.330400	0.832200
O14101	O1410	0.026600	0.382000	0.670000
O14111	O1411	0.106500	0.329500	0.782900
O14121	O1412	0.073400	0.366100	0.800400
O14131	O1413	0.030500	0.341300	0.788300
O14141	O1414	0.027900	0.372500	0.821700
Al3041	Al304	0.133800	0.829900	0.219500
Al3051	Al305	0.038400	0.855800	0.188800
Al3061	Al306	0.095300	0.861600	0.277600
P3041	P304	0.088800	0.870400	0.218900
P3051	P305	0.134700	0.816200	0.279200
P3061	P306	0.046000	0.851700	0.311700
O14151	O1415	0.080900	0.873900	0.249600
O14161	O1416	0.114100	0.887300	0.213000
O14171	O1417	0.101700	0.840900	0.218700
O14181	O1418	0.065900	0.871200	0.201200
O14191	O1419	0.135100	0.809300	0.246800
O14201	O1420	0.134600	0.797100	0.300400
O14211	O1421	0.157300	0.836500	0.281900
O14221	O1422	0.028300	0.836800	0.214100
O14231	O1423	0.055400	0.830400	0.332200
O14241	O1424	0.026600	0.882000	0.170000
O14251	O1425	0.106500	0.829500	0.282900
O14261	O1426	0.073400	0.866100	0.300400
O14271	O1427	0.030500	0.841300	0.288300
O14281	O1428	0.027900	0.872500	0.321700
Al3071	Al307	0.633800	0.329900	0.219500
Al3081	Al308	0.538400	0.355800	0.188800
Al3091	Al309	0.595300	0.361600	0.277600
P3071	P307	0.588800	0.370400	0.218900
P3081	P308	0.634700	0.316200	0.279200
P3091	P309	0.546000	0.351700	0.311700
O14291	O1429	0.580900	0.373900	0.249600
O14301	O1430	0.614100	0.387300	0.213000
O14311	O1431	0.601700	0.340900	0.218700
O14321	O1432	0.565900	0.371200	0.201200
O14331	O1433	0.635100	0.309300	0.246800
O14341	O1434	0.634600	0.297100	0.300400
O14351	O1435	0.657300	0.336500	0.281900
O14361	O1436	0.528300	0.336800	0.214100
O14371	O1437	0.555400	0.330400	0.332200
O14381	O1438	0.526600	0.382000	0.170000
O14391	O1439	0.606500	0.329500	0.282900
O14401	O1440	0.573400	0.366100	0.300400
O14411	O1441	0.530500	0.341300	0.288300
O14421	O1442	0.527900	0.372500	0.321700
Al3101	Al310	0.633800	0.829900	0.719500
Al3111	Al311	0.538400	0.855800	0.688800
Al3121	Al312	0.595300	0.861600	0.777600
P3101	P310	0.588800	0.870400	0.718900
P3111	P311	0.634700	0.816200	0.779200
P3121	P312	0.546000	0.851700	0.811700
O14431	O1443	0.580900	0.873900	0.749600
O14441	O1444	0.614100	0.887300	0.713000
O14451	O1445	0.601700	0.840900	0.718700
O14461	O1446	0.565900	0.871200	0.701200
O14471	O1447	0.635100	0.809300	0.746800
O14481	O1448	0.634600	0.797100	0.800400
O14491	O1449	0.657300	0.836500	0.781900
O14501	O1450	0.528300	0.836800	0.714100
O14511	O1451	0.555400	0.830400	0.832200
O14521	O1452	0.526600	0.882000	0.670000
O14531	O1453	0.606500	0.829500	0.782900
O14541	O1454	0.573400	0.866100	0.800400
O14551	O1455	0.530500	0.841300	0.788300
O14561	O1456	0.527900	0.872500	0.821700
Al3131	Al313	0.133800	0.670100	0.280500
Al3141	Al314	0.038400	0.644200	0.311200
Al3151	Al315	0.095300	0.638400	0.222400
P3131	P313	0.088800	0.629600	0.281100
P3141	P314	0.134700	0.683800	0.220800
P3151	P315	0.046000	0.648300	0.188300
O14571	O1457	0.080900	0.626100	0.250400
O14581	O1458	0.114100	0.612700	0.287000
O14591	O1459	0.101700	0.659100	0.281300
O14601	O1460	0.065900	0.628800	0.298800
O14611	O1461	0.135100	0.690700	0.253200
O14621	O1462	0.134600	0.702900	0.199600
O14631	O1463	0.157300	0.663500	0.218100
O14641	O1464	0.028300	0.663200	0.285900
O14651	O1465	0.055400	0.669600	0.167800
O14661	O1466	0.026600	0.618000	0.330000
O14671	O1467	0.106500	0.670500	0.217100
O14681	O1468	0.073400	0.633900	0.199600
O14691	O1469	0.030500	0.658700	0.211700
O14701	O1470	0.027900	0.627500	0.178300
Al3161	Al316	0.133800	0.170100	0.780500
Al3171	Al317	0.038400	0.144200	0.811200
Al3181	Al318	0.095300	0.138400	0.722400
P3161	P316	0.088800	0.129600	0.781100
P3171	P317	0.134700	0.183800	0.720800
P3181	P318	0.046000	0.148300	0.688300
O14711	O1471	0.080900	0.126100	0.750400
O14721	O1472	0.114100	0.112700	0.787000
O14731	O1473	0.101700	0.159100	0.781300
O14741	O1474	0.065900	0.128800	0.798800
O14751	O1475	0.135100	0.190700	0.753200
O14761	O1476	0.134600	0.202900	0.699600
O14771	O1477	0.157300	0.163500	0.718100
O14781	O1478	0.028300	0.163200	0.785900
O14791	O1479	0.055400	0.169600	0.667800
O14801	O1480	0.026600	0.118000	0.830000
O14811	O1481	0.106500	0.170500	0.717100
O14821	O1482	0.073400	0.133900	0.699600
O14831	O1483	0.030500	0.158700	0.711700
O14841	O1484	0.027900	0.127500	0.678300
Al3191	Al319	0.633800	0.670100	0.780500
Al3201	Al320	0.538400	0.644200	0.811200
Al3211	Al321	0.595300	0.638400	0.722400
P3191	P319	0.588800	0.629600	0.781100
P3201	P320	0.634700	0.683800	0.720800
P3211	P321	0.546000	0.648300	0.688300
O14851	O1485	0.580900	0.626100	0.750400
O14861	O1486	0.614100	0.612700	0.787000
O14871	O1487	0.601700	0.659100	0.781300
O14881	O1488	0.565900	0.628800	0.798800
O14891	O1489	0.635100	0.690700	0.753200
O14901	O1490	0.634600	0.702900	0.699600
O14911	O1491	0.657300	0.663500	0.718100
O14921	O1492	0.528300	0.663200	0.785900
O14931	O1493	0.555400	0.669600	0.667800
O14941	O1494	0.526600	0.618000	0.830000
O14951	O1495	0.606500	0.670500	0.717100
O14961	O1496	0.573400	0.633900	0.699600
O14971	O1497	0.530500	0.658700	0.711700
O14981	O1498	0.527900	0.627500	0.678300
Al3221	Al322	0.633800	0.170100	0.280500
Al3231	Al323	0.538400	0.144200	0.311200
Al3241	Al324	0.595300	0.138400	0.222400
P3221	P322	0.588800	0.129600	0.281100
P3231	P323	0.634700	0.183800	0.220800
P3241	P324	0.546000	0.148300	0.188300
O14991	O1499	0.580900	0.126100	0.250400
O15001	O1500	0.614100	0.112700	0.287000
O15011	O1501	0.601700	0.159100	0.281300
O15021	O1502	0.565900	0.128800	0.298800
O15031	O1503	0.635100	0.190700	0.253200
O15041	O1504	0.634600	0.202900	0.199600
O15051	O1505	0.657300	0.163500	0.218100
O15061	O1506	0.528300	0.163200	0.285900
O15071	O1507	0.555400	0.169600	0.167800
O15081	O1508	0.526600	0.118000	0.330000
O15091	O1509	0.606500	0.170500	0.217100
O15101	O1510	0.573400	0.133900	0.199600
O15111	O1511	0.530500	0.158700	0.211700
O15121	O1512	0.527900	0.127500	0.178300
Al3251	Al325	0.866200	0.329900	0.280500
Al3261	Al326	0.961600	0.355800	0.311200
Al3271	Al327	0.904700	0.361600	0.222400
P3251	P325	0.911200	0.370400	0.281100
P3261	P326	0.865300	0.316200	0.220800
P3271	P327	0.954000	0.351700	0.188300
O15131	O1513	0.919100	0.373900	0.250400
O15141	O1514	0.885900	0.387300	0.287000
O15151	O1515	0.898300	0.340900	0.281300
O15161	O1516	0.934100	0.371200	0.298800
O15171	O1517	0.864900	0.309300	0.253200
O15181	O1518	0.865400	0.297100	0.199600
O15191	O1519	0.842700	0.336500	0.218100
O15201	O1520	0.971700	0.336800	0.285900
O15211	O1521	0.944600	0.330400	0.167800
O15221	O1522	0.973400	0.382000	0.330000
O15231	O1523	0.893500	0.329500	0.217100
O15241	O1524	0.926600	0.366100	0.199600
O15251	O1525	0.969500	0.341300	0.211700
O15261	O1526	0.972100	0.372500	0.178300
Al3281	Al328	0.866200	0.829900	0.780500
Al3291	Al329	0.961600	0.855800	0.811200
Al3301	Al330	0.904700	0.861600	0.722400
P3281	P328	0.911200	0.870400	0.781100
P3291	P329	0.865300	0.816200	0.720800
P3301	P330	0.954000	0.851700	0.688300
O15271	O1527	0.919100	0.873900	0.750400
O15281	O1528	0.885900	0.887300	0.787000
O15291	O1529	0.898300	0.840900	0.781300
O15301	O1530	0.934100	0.871200	0.798800
O15311	O1531	0.864900	0.809300	0.753200
O15321	O1532	0.865400	0.797100	0.699600
O15331	O1533	0.842700	0.836500	0.718100
O15341	O1534	0.971700	0.836800	0.785900
O15351	O1535	0.944600	0.830400	0.667800
O15361	O1536	0.973400	0.882000	0.830000
O15371	O1537	0.893500	0.829500	0.717100
O15381	O1538	0.926600	0.866100	0.699600
O15391	O1539	0.969500	0.841300	0.711700
O15401	O1540	0.972100	0.872500	0.678300
Al3311	Al331	0.366200	0.329900	0.780500
Al3321	Al332	0.461600	0.355800	0.811200
Al3331	Al333	0.404700	0.361600	0.722400
P3311	P331	0.411200	0.370400	0.781100
P3321	P332	0.365300	0.316200	0.720800
P3331	P333	0.454000	0.351700	0.688300
O15411	O1541	0.419100	0.373900	0.750400
O15421	O1542	0.385900	0.387300	0.787000
O15431	O1543	0.398300	0.340900	0.781300
O15441	O1544	0.434100	0.371200	0.798800
O15451	O1545	0.364900	0.309300	0.753200
O15461	O1546	0.365400	0.297100	0.699600
O15471	O1547	0.342700	0.336500	0.718100
O15481	O1548	0.471700	0.336800	0.785900
O15491	O1549	0.444600	0.330400	0.667800
O15501	O1550	0.473400	0.382000	0.830000
O15511	O1551	0.393500	0.329500	0.717100
O15521	O1552	0.426600	0.366100	0.699600
O15531	O1553	0.469500	0.341300	0.711700
O15541	O1554	0.472100	0.372500	0.678300
Al3341	Al334	0.366200	0.829900	0.280500
Al3351	Al335	0.461600	0.855800	0.311200
Al3361	Al336	0.404700	0.861600	0.222400
P3341	P334	0.411200	0.870400	0.281100
P3351	P335	0.365300	0.816200	0.220800
P3361	P336	0.454000	0.851700	0.188300
O15551	O1555	0.419100	0.873900	0.250400
O15561	O1556	0.385900	0.887300	0.287000
O15571	O1557	0.398300	0.840900	0.281300
O15581	O1558	0.434100	0.871200	0.298800
O15591	O1559	0.364900	0.809300	0.253200
O15601	O1560	0.365400	0.797100	0.199600
O15611	O1561	0.342700	0.836500	0.218100
O15621	O1562	0.471700	0.836800	0.285900
O15631	O1563	0.444600	0.830400	0.167800
O15641	O1564	0.473400	0.882000	0.330000
O15651	O1565	0.393500	0.829500	0.217100
O15661	O1566	0.426600	0.866100	0.199600
O15671	O1567	0.469500	0.841300	0.211700
O15681	O1568	0.472100	0.872500	0.178300
Al3371	Al337	0.719500	0.866200	0.670100
Al3381	Al338	0.688800	0.961600	0.644200
Al3391	Al339	0.777600	0.904700	0.638400
P3371	P337	0.718900	0.911200	0.629600
P3381	P338	0.779200	0.865300	0.683800
P3391	P339	0.811700	0.954000	0.648300
O15691	O1569	0.749600	0.919100	0.626100
O15701	O1570	0.713000	0.885900	0.612700
O15711	O1571	0.718700	0.898300	0.659100
O15721	O1572	0.701200	0.934100	0.628800
O15731	O1573	0.746800	0.864900	0.690700
O15741	O1574	0.800400	0.865400	0.702900
O15751	O1575	0.781900	0.842700	0.663500
O15761	O1576	0.714100	0.971700	0.663200
O15771	O1577	0.832200	0.944600	0.669600
O15781	O1578	0.670000	0.973400	0.618000
O15791	O1579	0.782900	0.893500	0.670500
O15801	O1580	0.800400	0.926600	0.633900
O15811	O1581	0.788300	0.969500	0.658700
O15821	O1582	0.821700	0.972100	0.627500
Al3401	Al340	0.719500	0.366200	0.170100
Al3411	Al341	0.688800	0.461600	0.144200
Al3421	Al342	0.777600	0.404700	0.138400
P3401	P340	0.718900	0.411200	0.129600
P3411	P341	0.779200	0.365300	0.183800
P3421	P342	0.811700	0.454000	0.148300
O15831	O1583	0.749600	0.419100	0.126100
O15841	O1584	0.713000	0.385900	0.112700
O15851	O1585	0.718700	0.398300	0.159100
O15861	O1586	0.701200	0.434100	0.128800
O15871	O1587	0.746800	0.364900	0.190700
O15881	O1588	0.800400	0.365400	0.202900
O15891	O1589	0.781900	0.342700	0.163500
O15901	O1590	0.714100	0.471700	0.163200
O15911	O1591	0.832200	0.444600	0.169600
O15921	O1592	0.670000	0.473400	0.118000
O15931	O1593	0.782900	0.393500	0.170500
O15941	O1594	0.800400	0.426600	0.133900
O15951	O1595	0.788300	0.469500	0.158700
O15961	O1596	0.821700	0.472100	0.127500
Al3431	Al343	0.219500	0.866200	0.170100
Al3441	Al344	0.188800	0.961600	0.144200
Al3451	Al345	0.277600	0.904700	0.138400
P3431	P343	0.218900	0.911200	0.129600
P3441	P344	0.279200	0.865300	0.183800
P3451	P345	0.311700	0.954000	0.148300
O15971	O1597	0.249600	0.919100	0.126100
O15981	O1598	0.213000	0.885900	0.112700
O15991	O1599	0.218700	0.898300	0.159100
O16001	O1600	0.201200	0.934100	0.128800
O16011	O1601	0.246800	0.864900	0.190700
O16021	O1602	0.300400	0.865400	0.202900
O16031	O1603	0.281900	0.842700	0.163500
O16041	O1604	0.214100	0.971700	0.163200
O16051	O1605	0.332200	0.944600	0.169600
O16061	O1606	0.170000	0.973400	0.118000
O16071	O1607	0.282900	0.893500	0.170500
O16081	O1608	0.300400	0.926600	0.133900
O16091	O1609	0.288300	0.969500	0.158700
O16101	O1610	0.321700	0.972100	0.127500
Al3461	Al346	0.219500	0.366200	0.670100
Al3471	Al347	0.188800	0.461600	0.644200
Al3481	Al348	0.277600	0.404700	0.638400
P3461	P346	0.218900	0.411200	0.629600
P3471	P347	0.279200	0.365300	0.683800
P3481	P348	0.311700	0.454000	0.648300
O16111	O1611	0.249600	0.419100	0.626100
O16121	O1612	0.213000	0.385900	0.612700
O16131	O1613	0.218700	0.398300	0.659100
O16141	O1614	0.201200	0.434100	0.628800
O16151	O1615	0.246800	0.364900	0.690700
O16161	O1616	0.300400	0.365400	0.702900
O16171	O1617	0.281900	0.342700	0.663500
O16181	O1618	0.214100	0.471700	0.663200
O16191	O1619	0.332200	0.444600	0.669600
O16201	O1620	0.170000	0.473400	0.618000
O16211	O1621	0.282900	0.393500	0.670500
O16221	O1622	0.300400	0.426600	0.633900
O16231	O1623	0.288300	0.469500	0.658700
O16241	O1624	0.321700	0.472100	0.627500
Al3491	Al349	0.719500	0.133800	0.329900
Al3501	Al350	0.688800	0.038400	0.355800
Al3511	Al351	0.777600	0.095300	0.361600
P3491	P349	0.718900	0.088800	0.370400
P3501	P350	0.779200	0.134700	0.316200
P3511	P351	0.811700	0.046000	0.351700
O16251	O1625	0.749600	0.080900	0.373900
O16261	O1626	0.713000	0.114100	0.387300
O16271	O1627	0.718700	0.101700	0.340900
O16281	O1628	0.701200	0.065900	0.371200
O16291	O1629	0.746800	0.135100	0.309300
O16301	O1630	0.800400	0.134600	0.297100
O16311	O1631	0.781900	0.157300	0.336500
O16321	O1632	0.714100	0.028300	0.336800
O16331	O1633	0.832200	0.055400	0.330400
O16341	O1634	0.670000	0.026600	0.382000
O16351	O1635	0.782900	0.106500	0.329500
O16361	O1636	0.800400	0.073400	0.366100
O16371	O1637	0.788300	0.030500	0.341300
O16381	O1638	0.821700	0.027900	0.372500
Al3521	Al352	0.719500	0.633800	0.829900
Al3531	Al353	0.688800	0.538400	0.855800
Al3541	Al354	0.777600	0.595300	0.861600
P3521	P352	0.718900	0.588800	0.870400
P3531	P353	0.779200	0.634700	0.816200
P3541	P354	0.811700	0.546000	0.851700
O16391	O1639	0.749600	0.580900	0.873900
O16401	O1640	0.713000	0.614100	0.887300
O16411	O1641	0.718700	0.601700	0.840900
O16421	O1642	0.701200	0.565900	0.871200
O16431	O1643	0.746800	0.635100	0.809300
O16441	O1644	0.800400	0.634600	0.797100
O16451	O1645	0.781900	0.657300	0.836500
O16461	O1646	0.714100	0.528300	0.836800
O16471	O1647	0.832200	0.555400	0.830400
O16481	O1648	0.670000	0.526600	0.882000
O16491	O1649	0.782900	0.606500	0.829500
O16501	O1650	0.800400	0.573400	0.866100
O16511	O1651	0.788300	0.530500	0.841300
O16521	O1652	0.821700	0.527900	0.872500
Al3551	Al355	0.219500	0.133800	0.829900
Al3561	Al356	0.188800	0.038400	0.855800
Al3571	Al357	0.277600	0.095300	0.861600
P3551	P355	0.218900	0.088800	0.870400
P3561	P356	0.279200	0.134700	0.816200
P3571	P357	0.311700	0.046000	0.851700
O16531	O1653	0.249600	0.080900	0.873900
O16541	O1654	0.213000	0.114100	0.887300
O16551	O1655	0.218700	0.101700	0.840900
O16561	O1656	0.201200	0.065900	0.871200
O16571	O1657	0.246800	0.135100	0.809300
O16581	O1658	0.300400	0.134600	0.797100
O16591	O1659	0.281900	0.157300	0.836500
O16601	O1660	0.214100	0.028300	0.836800
O16611	O1661	0.332200	0.055400	0.830400
O16621	O1662	0.170000	0.026600	0.882000
O16631	O1663	0.282900	0.106500	0.829500
O16641	O1664	0.300400	0.073400	0.866100
O16651	O1665	0.288300	0.030500	0.841300
O16661	O1666	0.321700	0.027900	0.872500
Al3581	Al358	0.219500	0.633800	0.329900
Al3591	Al359	0.188800	0.538400	0.355800
Al3601	Al360	0.277600	0.595300	0.361600
P3581	P358	0.218900	0.588800	0.370400
P3591	P359	0.279200	0.634700	0.316200
P3601	P360	0.311700	0.546000	0.351700
O16671	O1667	0.249600	0.580900	0.373900
O16681	O1668	0.213000	0.614100	0.387300
O16691	O1669	0.218700	0.601700	0.340900
O16701	O1670	0.201200	0.565900	0.371200
O16711	O1671	0.246800	0.635100	0.309300
O16721	O1672	0.300400	0.634600	0.297100
O16731	O1673	0.281900	0.657300	0.336500
O16741	O1674	0.214100	0.528300	0.336800
O16751	O1675	0.332200	0.555400	0.330400
O16761	O1676	0.170000	0.526600	0.382000
O16771	O1677	0.282900	0.606500	0.329500
O16781	O1678	0.300400	0.573400	0.366100
O16791	O1679	0.288300	0.530500	0.341300
O16801	O1680	0.321700	0.527900	0.372500
Al3611	Al361	0.280500	0.133800	0.670100
Al3621	Al362	0.311200	0.038400	0.644200
Al3631	Al363	0.222400	0.095300	0.638400
P3611	P361	0.281100	0.088800	0.629600
P3621	P362	0.220800	0.134700	0.683800
P3631	P363	0.188300	0.046000	0.648300
O16811	O1681	0.250400	0.080900	0.626100
O16821	O1682	0.287000	0.114100	0.612700
O16831	O1683	0.281300	0.101700	0.659100
O16841	O1684	0.298800	0.065900	0.628800
O16851	O1685	0.253200	0.135100	0.690700
O16861	O1686	0.199600	0.134600	0.702900
O16871	O1687	0.218100	0.157300	0.663500
O16881	O1688	0.285900	0.028300	0.663200
O16891	O1689	0.167800	0.055400	0.669600
O16901	O1690	0.330000	0.026600	0.618000
O16911	O1691	0.217100	0.106500	0.670500
O16921	O1692	0.199600	0.073400	0.633900
O16931	O1693	0.211700	0.030500	0.658700
O16941	O1694	0.178300	0.027900	0.627500
Al3641	Al364	0.280500	0.633800	0.170100
Al3651	Al365	0.311200	0.538400	0.144200
Al3661	Al366	0.222400	0.595300	0.138400
P3641	P364	0.281100	0.588800	0.129600
P3651	P365	0.220800	0.634700	0.183800
P3661	P366	0.188300	0.546000	0.148300
O16951	O1695	0.250400	0.580900	0.126100
O16961	O1696	0.287000	0.614100	0.112700
O16971	O1697	0.281300	0.601700	0.159100
O16981	O1698	0.298800	0.565900	0.128800
O16991	O1699	0.253200	0.635100	0.190700
O17001	O1700	0.199600	0.634600	0.202900
O17011	O1701	0.218100	0.657300	0.163500
O17021	O1702	0.285900	0.528300	0.163200
O17031	O1703	0.167800	0.555400	0.169600
O17041	O1704	0.330000	0.526600	0.118000
O17051	O1705	0.217100	0.606500	0.170500
O17061	O1706	0.199600	0.573400	0.133900
O17071	O1707	0.211700	0.530500	0.158700
O17081	O1708	0.178300	0.527900	0.127500
Al3671	Al367	0.780500	0.133800	0.170100
Al3681	Al368	0.811200	0.038400	0.144200
Al3691	Al369	0.722400	0.095300	0.138400
P3671	P367	0.781100	0.088800	0.129600
P3681	P368	0.720800	0.134700	0.183800
P3691	P369	0.688300	0.046000	0.148300
O17091	O1709	0.750400	0.080900	0.126100
O17101	O1710	0.787000	0.114100	0.112700
O17111	O1711	0.781300	0.101700	0.159100
O17121	O1712	0.798800	0.065900	0.128800
O17131	O1713	0.753200	0.135100	0.190700
O17141	O1714	0.699600	0.134600	0.202900
O17151	O1715	0.718100	0.157300	0.163500
O17161	O1716	0.785900	0.028300	0.163200
O17171	O1717	0.667800	0.055400	0.169600
O17181	O1718	0.830000	0.026600	0.118000
O17191	O1719	0.717100	0.106500	0.170500
O17201	O1720	0.699600	0.073400	0.133900
O17211	O1721	0.711700	0.030500	0.158700
O17221	O1722	0.678300	0.027900	0.127500
Al3701	Al370	0.780500	0.633800	0.670100
Al3711	Al371	0.811200	0.538400	0.644200
Al3721	Al372	0.722400	0.595300	0.638400
P3701	P370	0.781100	0.588800	0.629600
P3711	P371	0.720800	0.634700	0.683800
P3721	P372	0.688300	0.546000	0.648300
O17231	O1723	0.750400	0.580900	0.626100
O17241	O1724	0.787000	0.614100	0.612700
O17251	O1725	0.781300	0.601700	0.659100
O17261	O1726	0.798800	0.565900	0.628800
O17271	O1727	0.753200	0.635100	0.690700
O17281	O1728	0.699600	0.634600	0.702900
O17291	O1729	0.718100	0.657300	0.663500
O17301	O1730	0.785900	0.528300	0.663200
O17311	O1731	0.667800	0.555400	0.669600
O17321	O1732	0.830000	0.526600	0.618000
O17331	O1733	0.717100	0.606500	0.670500
O17341	O1734	0.699600	0.573400	0.633900
O17351	O1735	0.711700	0.530500	0.658700
O17361	O1736	0.678300	0.527900	0.627500
Al3731	Al373	0.280500	0.866200	0.329900
Al3741	Al374	0.311200	0.961600	0.355800
Al3751	Al375	0.222400	0.904700	0.361600
P3731	P373	0.281100	0.911200	0.370400
P3741	P374	0.220800	0.865300	0.316200
P3751	P375	0.188300	0.954000	0.351700
O17371	O1737	0.250400	0.919100	0.373900
O17381	O1738	0.287000	0.885900	0.387300
O17391	O1739	0.281300	0.898300	0.340900
O17401	O1740	0.298800	0.934100	0.371200
O17411	O1741	0.253200	0.864900	0.309300
O17421	O1742	0.199600	0.865400	0.297100
O17431	O1743	0.218100	0.842700	0.336500
O17441	O1744	0.285900	0.971700	0.336800
O17451	O1745	0.167800	0.944600	0.330400
O17461	O1746	0.330000	0.973400	0.382000
O17471	O1747	0.217100	0.893500	0.329500
O17481	O1748	0.199600	0.926600	0.366100
O17491	O1749	0.211700	0.969500	0.341300
O17501	O1750	0.178300	0.972100	0.372500
Al3761	Al376	0.280500	0.366200	0.829900
Al3771	Al377	0.311200	0.461600	0.855800
Al3781	Al378	0.222400	0.404700	0.861600
P3761	P376	0.281100	0.411200	0.870400
P3771	P377	0.220800	0.365300	0.816200
P3781	P378	0.188300	0.454000	0.851700
O17511	O1751	0.250400	0.419100	0.873900
O17521	O1752	0.287000	0.385900	0.887300
O17531	O1753	0.281300	0.398300	0.840900
O17541	O1754	0.298800	0.434100	0.871200
O17551	O1755	0.253200	0.364900	0.809300
O17561	O1756	0.199600	0.365400	0.797100
O17571	O1757	0.218100	0.342700	0.836500
O17581	O1758	0.285900	0.471700	0.836800
O17591	O1759	0.167800	0.444600	0.830400
O17601	O1760	0.330000	0.473400	0.882000
O17611	O1761	0.217100	0.393500	0.829500
O17621	O1762	0.199600	0.426600	0.866100
O17631	O1763	0.211700	0.469500	0.841300
O17641	O1764	0.178300	0.472100	0.872500
Al3791	Al379	0.780500	0.866200	0.829900
Al3801	Al380	0.811200	0.961600	0.855800
Al3811	Al381	0.722400	0.904700	0.861600
P3791	P379	0.781100	0.911200	0.870400
P3801	P380	0.720800	0.865300	0.816200
P3811	P381	0.688300	0.954000	0.851700
O17651	O1765	0.750400	0.919100	0.873900
O17661	O1766	0.787000	0.885900	0.887300
O17671	O1767	0.781300	0.898300	0.840900
O17681	O1768	0.798800	0.934100	0.871200
O17691	O1769	0.753200	0.864900	0.809300
O17701	O1770	0.699600	0.865400	0.797100
O17711	O1771	0.718100	0.842700	0.836500
O17721	O1772	0.785900	0.971700	0.836800
O17731	O1773	0.667800	0.944600	0.830400
O17741	O1774	0.830000	0.973400	0.882000
O17751	O1775	0.717100	0.893500	0.829500
O17761	O1776	0.699600	0.926600	0.866100
O17771	O1777	0.711700	0.969500	0.841300
O17781	O1778	0.678300	0.972100	0.872500
Al3821	Al382	0.780500	0.366200	0.329900
Al3831	Al383	0.811200	0.461600	0.355800
Al3841	Al384	0.722400	0.404700	0.361600
P3821	P382	0.781100	0.411200	0.370400
P3831	P383	0.720800	0.365300	0.316200
P3841	P384	0.688300	0.454000	0.351700
O17791	O1779	0.750400	0.419100	0.373900
O17801	O1780	0.787000	0.385900	0.387300
O17811	O1781	0.781300	0.398300	0.340900
O17821	O1782	0.798800	0.434100	0.371200
O17831	O1783	0.753200	0.364900	0.309300
O17841	O1784	0.699600	0.365400	0.297100
O17851	O1785	0.718100	0.342700	0.336500
O17861	O1786	0.785900	0.471700	0.336800
O17871	O1787	0.667800	0.444600	0.330400
O17881	O1788	0.830000	0.473400	0.382000
O17891	O1789	0.717100	0.393500	0.329500
O17901	O1790	0.699600	0.426600	0.366100
O17911	O1791	0.711700	0.469500	0.341300
O17921	O1792	0.678300	0.472100	0.372500
Al3851	Al385	0.670100	0.719500	0.866200
Al3861	Al386	0.644200	0.688800	0.961600
Al3871	Al387	0.638400	0.777600	0.904700
P3851	P385	0.629600	0.718900	0.911200
P3861	P386	0.683800	0.779200	0.865300
P3871	P387	0.648300	0.811700	0.954000
O17931	O1793	0.626100	0.749600	0.919100
O17941	O1794	0.612700	0.713000	0.885900
O17951	O1795	0.659100	0.718700	0.898300
O17961	O1796	0.628800	0.701200	0.934100
O17971	O1797	0.690700	0.746800	0.864900
O17981	O1798	0.702900	0.800400	0.865400
O17991	O1799	0.663500	0.781900	0.842700
O18001	O1800	0.663200	0.714100	0.971700
O18011	O1801	0.669600	0.832200	0.944600
O18021	O1802	0.618000	0.670000	0.973400
O18031	O1803	0.670500	0.782900	0.893500
O18041	O1804	0.633900	0.800400	0.926600
O18051	O1805	0.658700	0.788300	0.969500
O18061	O1806	0.627500	0.821700	0.972100
Al3881	Al388	0.670100	0.219500	0.366200
Al3891	Al389	0.644200	0.188800	0.461600
Al3901	Al390	0.638400	0.277600	0.404700
P3881	P388	0.629600	0.218900	0.411200
P3891	P389	0.683800	0.279200	0.365300
P3901	P390	0.648300	0.311700	0.454000
O18071	O1807	0.626100	0.249600	0.419100
O18081	O1808	0.612700	0.213000	0.385900
O18091	O1809	0.659100	0.218700	0.398300
O18101	O1810	0.628800	0.201200	0.434100
O18111	O1811	0.690700	0.246800	0.364900
O18121	O1812	0.702900	0.300400	0.365400
O18131	O1813	0.663500	0.281900	0.342700
O18141	O1814	0.663200	0.214100	0.471700
O18151	O1815	0.669600	0.332200	0.444600
O18161	O1816	0.618000	0.170000	0.473400
O18171	O1817	0.670500	0.282900	0.393500
O18181	O1818	0.633900	0.300400	0.426600
O18191	O1819	0.658700	0.288300	0.469500
O18201	O1820	0.627500	0.321700	0.472100
Al3911	Al391	0.170100	0.719500	0.366200
Al3921	Al392	0.144200	0.688800	0.461600
Al3931	Al393	0.138400	0.777600	0.404700
P3911	P391	0.129600	0.718900	0.411200
P3921	P392	0.183800	0.779200	0.365300
P3931	P393	0.148300	0.811700	0.454000
O18211	O1821	0.126100	0.749600	0.419100
O18221	O1822	0.112700	0.713000	0.385900
O18231	O1823	0.159100	0.718700	0.398300
O18241	O1824	0.128800	0.701200	0.434100
O18251	O1825	0.190700	0.746800	0.364900
O18261	O1826	0.202900	0.800400	0.365400
O18271	O1827	0.163500	0.781900	0.342700
O18281	O1828	0.163200	0.714100	0.471700
O18291	O1829	0.169600	0.832200	0.444600
O18301	O1830	0.118000	0.670000	0.473400
O18311	O1831	0.170500	0.782900	0.393500
O18321	O1832	0.133900	0.800400	0.426600
O18331	O1833	0.158700	0.788300	0.469500
O18341	O1834	0.127500	0.821700	0.472100
Al3941	Al394	0.170100	0.219500	0.866200
Al3951	Al395	0.144200	0.188800	0.961600
Al3961	Al396	0.138400	0.277600	0.904700
P3941	P394	0.129600	0.218900	0.911200
P3951	P395	0.183800	0.279200	0.865300
P3961	P396	0.148300	0.311700	0.954000
O18351	O1835	0.126100	0.249600	0.919100
O18361	O1836	0.112700	0.213000	0.885900
O18371	O1837	0.159100	0.218700	0.898300
O18381	O1838	0.128800	0.201200	0.934100
O18391	O1839	0.190700	0.246800	0.864900
O18401	O1840	0.202900	0.300400	0.865400
O18411	O1841	0.163500	0.281900	0.842700
O18421	O1842	0.163200	0.214100	0.971700
O18431	O1843	0.169600	0.332200	0.944600
O18441	O1844	0.118000	0.170000	0.973400
O18451	O1845	0.170500	0.282900	0.893500
O18461	O1846	0.133900	0.300400	0.926600
O18471	O1847	0.158700	0.288300	0.969500
O18481	O1848	0.127500	0.321700	0.972100
Al3971	Al397	0.329900	0.719500	0.133800
Al3981	Al398	0.355800	0.688800	0.038400
Al3991	Al399	0.361600	0.777600	0.095300
P3971	P397	0.370400	0.718900	0.088800
P3981	P398	0.316200	0.779200	0.134700
P3991	P399	0.351700	0.811700	0.046000
O18491	O1849	0.373900	0.749600	0.080900
O18501	O1850	0.387300	0.713000	0.114100
O18511	O1851	0.340900	0.718700	0.101700
O18521	O1852	0.371200	0.701200	0.065900
O18531	O1853	0.309300	0.746800	0.135100
O18541	O1854	0.297100	0.800400	0.134600
O18551	O1855	0.336500	0.781900	0.157300
O18561	O1856	0.336800	0.714100	0.028300
O18571	O1857	0.330400	0.832200	0.055400
O18581	O1858	0.382000	0.670000	0.026600
O18591	O1859	0.329500	0.782900	0.106500
O18601	O1860	0.366100	0.800400	0.073400
O18611	O1861	0.341300	0.788300	0.030500
O18621	O1862	0.372500	0.821700	0.027900
Al4001	Al400	0.329900	0.219500	0.633800
Al4011	Al401	0.355800	0.188800	0.538400
Al4021	Al402	0.361600	0.277600	0.595300
P4001	P400	0.370400	0.218900	0.588800
P4011	P401	0.316200	0.279200	0.634700
P4021	P402	0.351700	0.311700	0.546000
O18631	O1863	0.373900	0.249600	0.580900
O18641	O1864	0.387300	0.213000	0.614100
O18651	O1865	0.340900	0.218700	0.601700
O18661	O1866	0.371200	0.201200	0.565900
O18671	O1867	0.309300	0.246800	0.635100
O18681	O1868	0.297100	0.300400	0.634600
O18691	O1869	0.336500	0.281900	0.657300
O18701	O1870	0.336800	0.214100	0.528300
O18711	O1871	0.330400	0.332200	0.555400
O18721	O1872	0.382000	0.170000	0.526600
O18731	O1873	0.329500	0.282900	0.606500
O18741	O1874	0.366100	0.300400	0.573400
O18751	O1875	0.341300	0.288300	0.530500
O18761	O1876	0.372500	0.321700	0.527900
Al4031	Al403	0.829900	0.719500	0.633800
Al4041	Al404	0.855800	0.688800	0.538400
Al4051	Al405	0.861600	0.777600	0.595300
P4031	P403	0.870400	0.718900	0.588800
P4041	P404	0.816200	0.779200	0.634700
P4051	P405	0.851700	0.811700	0.546000
O18771	O1877	0.873900	0.749600	0.580900
O18781	O1878	0.887300	0.713000	0.614100
O18791	O1879	0.840900	0.718700	0.601700
O18801	O1880	0.871200	0.701200	0.565900
O18811	O1881	0.809300	0.746800	0.635100
O18821	O1882	0.797100	0.800400	0.634600
O18831	O1883	0.836500	0.781900	0.657300
O18841	O1884	0.836800	0.714100	0.528300
O18851	O1885	0.830400	0.832200	0.555400
O18861	O1886	0.882000	0.670000	0.526600
O18871	O1887	0.829500	0.782900	0.606500
O18881	O1888	0.866100	0.800400	0.573400
O18891	O1889	0.841300	0.788300	0.530500
O18901	O1890	0.872500	0.821700	0.527900
Al4061	Al406	0.829900	0.219500	0.133800
Al4071	Al407	0.855800	0.188800	0.038400
Al4081	Al408	0.861600	0.277600	0.095300
P4061	P406	0.870400	0.218900	0.088800
P4071	P407	0.816200	0.279200	0.134700
P4081	P408	0.851700	0.311700	0.046000
O18911	O1891	0.873900	0.249600	0.080900
O18921	O1892	0.887300	0.213000	0.114100
O18931	O1893	0.840900	0.218700	0.101700
O18941	O1894	0.871200	0.201200	0.065900
O18951	O1895	0.809300	0.246800	0.135100
O18961	O1896	0.797100	0.300400	0.134600
O18971	O1897	0.836500	0.281900	0.157300
O18981	O1898	0.836800	0.214100	0.028300
O18991	O1899	0.830400	0.332200	0.055400
O19001	O1900	0.882000	0.170000	0.026600
O19011	O1901	0.829500	0.282900	0.106500
O19021	O1902	0.866100	0.300400	0.073400
O19031	O1903	0.841300	0.288300	0.030500
O19041	O1904	0.872500	0.321700	0.027900
Al4091	Al409	0.670100	0.280500	0.133800
Al4101	Al410	0.644200	0.311200	0.038400
Al4111	Al411	0.638400	0.222400	0.095300
P4091	P409	0.629600	0.281100	0.088800
P4101	P410	0.683800	0.220800	0.134700
P4111	P411	0.648300	0.188300	0.046000
O19051	O1905	0.626100	0.250400	0.080900
O19061	O1906	0.612700	0.287000	0.114100
O19071	O1907	0.659100	0.281300	0.101700
O19081	O1908	0.628800	0.298800	0.065900
O19091	O1909	0.690700	0.253200	0.135100
O19101	O1910	0.702900	0.199600	0.134600
O19111	O1911	0.663500	0.218100	0.157300
O19121	O1912	0.663200	0.285900	0.028300
O19131	O1913	0.669600	0.167800	0.055400
O19141	O1914	0.618000	0.330000	0.026600
O19151	O1915	0.670500	0.217100	0.106500
O19161	O1916	0.633900	0.199600	0.073400
O19171	O1917	0.658700	0.211700	0.030500
O19181	O1918	0.627500	0.178300	0.027900
Al4121	Al412	0.670100	0.780500	0.633800
Al4131	Al413	0.644200	0.811200	0.538400
Al4141	Al414	0.638400	0.722400	0.595300
P4121	P412	0.629600	0.781100	0.588800
P4131	P413	0.683800	0.720800	0.634700
P4141	P414	0.648300	0.688300	0.546000
O19191	O1919	0.626100	0.750400	0.580900
O19201	O1920	0.612700	0.787000	0.614100
O19211	O1921	0.659100	0.781300	0.601700
O19221	O1922	0.628800	0.798800	0.565900
O19231	O1923	0.690700	0.753200	0.635100
O19241	O1924	0.702900	0.699600	0.634600
O19251	O1925	0.663500	0.718100	0.657300
O19261	O1926	0.663200	0.785900	0.528300
O19271	O1927	0.669600	0.667800	0.555400
O19281	O1928	0.618000	0.830000	0.526600
O19291	O1929	0.670500	0.717100	0.606500
O19301	O1930	0.633900	0.699600	0.573400
O19311	O1931	0.658700	0.711700	0.530500
O19321	O1932	0.627500	0.678300	0.527900
Al4151	Al415	0.170100	0.280500	0.633800
Al4161	Al416	0.144200	0.311200	0.538400
Al4171	Al417	0.138400	0.222400	0.595300
P4151	P415	0.129600	0.281100	0.588800
P4161	P416	0.183800	0.220800	0.634700
P4171	P417	0.148300	0.188300	0.546000
O19331	O1933	0.126100	0.250400	0.580900
O19341	O1934	0.112700	0.287000	0.614100
O19351	O1935	0.159100	0.281300	0.601700
O19361	O1936	0.128800	0.298800	0.565900
O19371	O1937	0.190700	0.253200	0.635100
O19381	O1938	0.202900	0.199600	0.634600
O19391	O1939	0.163500	0.218100	0.657300
O19401	O1940	0.163200	0.285900	0.528300
O19411	O1941	0.169600	0.167800	0.555400
O19421	O1942	0.118000	0.330000	0.526600
O19431	O1943	0.170500	0.217100	0.606500
O19441	O1944	0.133900	0.199600	0.573400
O19451	O1945	0.158700	0.211700	0.530500
O19461	O1946	0.127500	0.178300	0.527900
Al4181	Al418	0.170100	0.780500	0.133800
Al4191	Al419	0.144200	0.811200	0.038400
Al4201	Al420	0.138400	0.722400	0.095300
P4181	P418	0.129600	0.781100	0.088800
P4191	P419	0.183800	0.720800	0.134700
P4201	P420	0.148300	0.688300	0.046000
O19471	O1947	0.126100	0.750400	0.080900
O19481	O1948	0.112700	0.787000	0.114100
O19491	O1949	0.159100	0.781300	0.101700
O19501	O1950	0.128800	0.798800	0.065900
O19511	O1951	0.190700	0.753200	0.135100
O19521	O1952	0.202900	0.699600	0.134600
O19531	O1953	0.163500	0.718100	0.157300
O19541	O1954	0.163200	0.785900	0.028300
O19551	O1955	0.169600	0.667800	0.055400
O19561	O1956	0.118000	0.830000	0.026600
O19571	O1957	0.170500	0.717100	0.106500
O19581	O1958	0.133900	0.699600	0.073400
O19591	O1959	0.158700	0.711700	0.030500
O19601	O1960	0.127500	0.678300	0.027900
Al4211	Al421	0.329900	0.280500	0.866200
Al4221	Al422	0.355800	0.311200	0.961600
Al4231	Al423	0.361600	0.222400	0.904700
P4211	P421	0.370400	0.281100	0.911200
P4221	P422	0.316200	0.220800	0.865300
P4231	P423	0.351700	0.188300	0.954000
O19611	O1961	0.373900	0.250400	0.919100
O19621	O1962	0.387300	0.287000	0.885900
O19631	O1963	0.340900	0.281300	0.898300
O19641	O1964	0.371200	0.298800	0.934100
O19651	O1965	0.309300	0.253200	0.864900
O19661	O1966	0.297100	0.199600	0.865400
O19671	O1967	0.336500	0.218100	0.842700
O19681	O1968	0.336800	0.285900	0.971700
O19691	O1969	0.330400	0.167800	0.944600
O19701	O1970	0.382000	0.330000	0.973400
O19711	O1971	0.329500	0.217100	0.893500
O19721	O1972	0.366100	0.199600	0.926600
O19731	O1973	0.341300	0.211700	0.969500
O19741	O1974	0.372500	0.178300	0.972100
Al4241	Al424	0.329900	0.780500	0.366200
Al4251	Al425	0.355800	0.811200	0.461600
Al4261	Al426	0.361600	0.722400	0.404700
P4241	P424	0.370400	0.781100	0.411200
P4251	P425	0.316200	0.720800	0.365300
P4261	P426	0.351700	0.688300	0.454000
O19751	O1975	0.373900	0.750400	0.419100
O19761	O1976	0.387300	0.787000	0.385900
O19771	O1977	0.340900	0.781300	0.398300
O19781	O1978	0.371200	0.798800	0.434100
O19791	O1979	0.309300	0.753200	0.364900
O19801	O1980	0.297100	0.699600	0.365400
O19811	O1981	0.336500	0.718100	0.342700
O19821	O1982	0.336800	0.785900	0.471700
O19831	O1983	0.330400	0.667800	0.444600
O19841	O1984	0.382000	0.830000	0.473400
O19851	O1985	0.329500	0.717100	0.393500
O19861	O1986	0.366100	0.699600	0.426600
O19871	O1987	0.341300	0.711700	0.469500
O19881	O1988	0.372500	0.678300	0.472100
Al4271	Al427	0.829900	0.280500	0.366200
Al4281	Al428	0.855800	0.311200	0.461600
Al4291	Al429	0.861600	0.222400	0.404700
P4271	P427	0.870400	0.281100	0.411200
P4281	P428	0.816200	0.220800	0.365300
P4291	P429	0.851700	0.188300	0.454000
O19891	O1989	0.873900	0.250400	0.419100
O19901	O1990	0.887300	0.287000	0.385900
O19911	O1991	0.840900	0.281300	0.398300
O19921	O1992	0.871200	0.298800	0.434100
O19931	O1993	0.809300	0.253200	0.364900
O19941	O1994	0.797100	0.199600	0.365400
O19951	O1995	0.836500	0.218100	0.342700
O19961	O1996	0.836800	0.285900	0.471700
O19971	O1997	0.830400	0.167800	0.444600
O19981	O1998	0.882000	0.330000	0.473400
O19991	O1999	0.829500	0.217100	0.393500
O20001	O2000	0.866100	0.199600	0.426600
O20011	O2001	0.841300	0.211700	0.469500
O20021	O2002	0.872500	0.178300	0.472100
Al4301	Al430	0.829900	0.780500	0.866200
Al4311	Al431	0.855800	0.811200	0.961600
Al4321	Al432	0.861600	0.722400	0.904700
P4301	P430	0.870400	0.781100	0.911200
P4311	P431	0.816200	0.720800	0.865300
P4321	P432	0.851700	0.688300	0.954000
O20031	O2003	0.873900	0.750400	0.919100
O20041	O2004	0.887300	0.787000	0.885900
O20051	O2005	0.840900	0.781300	0.898300
O20061	O2006	0.871200	0.798800	0.934100
O20071	O2007	0.809300	0.753200	0.864900
O20081	O2008	0.797100	0.699600	0.865400
O20091	O2009	0.836500	0.718100	0.842700
O20101	O2010	0.836800	0.785900	0.971700
O20111	O2011	0.830400	0.667800	0.944600
O20121	O2012	0.882000	0.830000	0.973400
O20131	O2013	0.829500	0.717100	0.893500
O20141	O2014	0.866100	0.699600	0.926600
O20151	O2015	0.841300	0.711700	0.969500
O20161	O2016	0.872500	0.678300	0.972100
Al4331	Al433	0.170100	0.366200	0.780500
Al4341	Al434	0.144200	0.461600	0.811200
Al4351	Al435	0.138400	0.404700	0.722400
P4331	P433	0.129600	0.411200	0.781100
P4341	P434	0.183800	0.365300	0.720800
P4351	P435	0.148300	0.454000	0.688300
O20171	O2017	0.126100	0.419100	0.750400
O20181	O2018	0.112700	0.385900	0.787000
O20191	O2019	0.159100	0.398300	0.781300
O20201	O2020	0.128800	0.434100	0.798800
O20211	O2021	0.190700	0.364900	0.753200
O20221	O2022	0.202900	0.365400	0.699600
O20231	O2023	0.163500	0.342700	0.718100
O20241	O2024	0.163200	0.471700	0.785900
O20251	O2025	0.169600	0.444600	0.667800
O20261	O2026	0.118000	0.473400	0.830000
O20271	O2027	0.170500	0.393500	0.717100
O20281	O2028	0.133900	0.426600	0.699600
O20291	O2029	0.158700	0.469500	0.711700
O20301	O2030	0.127500	0.472100	0.678300
Al4361	Al436	0.170100	0.866200	0.280500
Al4371	Al437	0.144200	0.961600	0.311200
Al4381	Al438	0.138400	0.904700	0.222400
P4361	P436	0.129600	0.911200	0.281100
P4371	P437	0.183800	0.865300	0.220800
P4381	P438	0.148300	0.954000	0.188300
O20311	O2031	0.126100	0.919100	0.250400
O20321	O2032	0.112700	0.885900	0.287000
O20331	O2033	0.159100	0.898300	0.281300
O20341	O2034	0.128800	0.934100	0.298800
O20351	O2035	0.190700	0.864900	0.253200
O20361	O2036	0.202900	0.865400	0.199600
O20371	O2037	0.163500	0.842700	0.218100
O20381	O2038	0.163200	0.971700	0.285900
O20391	O2039	0.169600	0.944600	0.167800
O20401	O2040	0.118000	0.973400	0.330000
O20411	O2041	0.170500	0.893500	0.217100
O20421	O2042	0.133900	0.926600	0.199600
O20431	O2043	0.158700	0.969500	0.211700
O20441	O2044	0.127500	0.972100	0.178300
Al4391	Al439	0.670100	0.366200	0.280500
Al4401	Al440	0.644200	0.461600	0.311200
Al4411	Al441	0.638400	0.404700	0.222400
P4391	P439	0.629600	0.411200	0.281100
P4401	P440	0.683800	0.365300	0.220800
P4411	P441	0.648300	0.454000	0.188300
O20451	O2045	0.626100	0.419100	0.250400
O20461	O2046	0.612700	0.385900	0.287000
O20471	O2047	0.659100	0.398300	0.281300
O20481	O2048	0.628800	0.434100	0.298800
O20491	O2049	0.690700	0.364900	0.253200
O20501	O2050	0.702900	0.365400	0.199600
O20511	O2051	0.663500	0.342700	0.218100
O20521	O2052	0.663200	0.471700	0.285900
O20531	O2053	0.669600	0.444600	0.167800
O20541	O2054	0.618000	0.473400	0.330000
O20551	O2055	0.670500	0.393500	0.217100
O20561	O2056	0.633900	0.426600	0.199600
O20571	O2057	0.658700	0.469500	0.211700
O20581	O2058	0.627500	0.472100	0.178300
Al4421	Al442	0.670100	0.866200	0.780500
Al4431	Al443	0.644200	0.961600	0.811200
Al4441	Al444	0.638400	0.904700	0.722400
P4421	P442	0.629600	0.911200	0.781100
P4431	P443	0.683800	0.865300	0.720800
P4441	P444	0.648300	0.954000	0.688300
O20591	O2059	0.626100	0.919100	0.750400
O20601	O2060	0.612700	0.885900	0.787000
O20611	O2061	0.659100	0.898300	0.781300
O20621	O2062	0.628800	0.934100	0.798800
O20631	O2063	0.690700	0.864900	0.753200
O20641	O2064	0.702900	0.865400	0.699600
O20651	O2065	0.663500	0.842700	0.718100
O20661	O2066	0.663200	0.971700	0.785900
O20671	O2067	0.669600	0.944600	0.667800
O20681	O2068	0.618000	0.973400	0.830000
O20691	O2069	0.670500	0.893500	0.717100
O20701	O2070	0.633900	0.926600	0.699600
O20711	O2071	0.658700	0.969500	0.711700
O20721	O2072	0.627500	0.972100	0.678300
Al4451	Al445	0.829900	0.633800	0.780500
Al4461	Al446	0.855800	0.538400	0.811200
Al4471	Al447	0.861600	0.595300	0.722400
P4451	P445	0.870400	0.588800	0.781100
P4461	P446	0.816200	0.634700	0.720800
P4471	P447	0.851700	0.546000	0.688300
O20731	O2073	0.873900	0.580900	0.750400
O20741	O2074	0.887300	0.614100	0.787000
O20751	O2075	0.840900	0.601700	0.781300
O20761	O2076	0.871200	0.565900	0.798800
O20771	O2077	0.809300	0.635100	0.753200
O20781	O2078	0.797100	0.634600	0.699600
O20791	O2079	0.836500	0.657300	0.718100
O20801	O2080	0.836800	0.528300	0.785900
O20811	O2081	0.830400	0.555400	0.667800
O20821	O2082	0.882000	0.526600	0.830000
O20831	O2083	0.829500	0.606500	0.717100
O20841	O2084	0.866100	0.573400	0.699600
O20851	O2085	0.841300	0.530500	0.711700
O20861	O2086	0.872500	0.527900	0.678300
Al4481	Al448	0.829900	0.133800	0.280500
Al4491	Al449	0.855800	0.038400	0.311200
Al4501	Al450	0.861600	0.095300	0.222400
P4481	P448	0.870400	0.088800	0.281100
P4491	P449	0.816200	0.134700	0.220800
P4501	P450	0.851700	0.046000	0.188300
O20871	O2087	0.873900	0.080900	0.250400
O20881	O2088	0.887300	0.114100	0.287000
O20891	O2089	0.840900	0.101700	0.281300
O20901	O2090	0.871200	0.065900	0.298800
O20911	O2091	0.809300	0.135100	0.253200
O20921	O2092	0.797100	0.134600	0.199600
O20931	O2093	0.836500	0.157300	0.218100
O20941	O2094	0.836800	0.028300	0.285900
O20951	O2095	0.830400	0.055400	0.167800
O20961	O2096	0.882000	0.026600	0.330000
O20971	O2097	0.829500	0.106500	0.217100
O20981	O2098	0.866100	0.073400	0.199600
O20991	O2099	0.841300	0.030500	0.211700
O21001	O2100	0.872500	0.027900	0.178300
Al4511	Al451	0.329900	0.633800	0.280500
Al4521	Al452	0.355800	0.538400	0.311200
Al4531	Al453	0.361600	0.595300	0.222400
P4511	P451	0.370400	0.588800	0.281100
P4521	P452	0.316200	0.634700	0.220800
P4531	P453	0.351700	0.546000	0.188300
O21011	O2101	0.373900	0.580900	0.250400
O21021	O2102	0.387300	0.614100	0.287000
O21031	O2103	0.340900	0.601700	0.281300
O21041	O2104	0.371200	0.565900	0.298800
O21051	O2105	0.309300	0.635100	0.253200
O21061	O2106	0.297100	0.634600	0.199600
O21071	O2107	0.336500	0.657300	0.218100
O21081	O2108	0.336800	0.528300	0.285900
O21091	O2109	0.330400	0.555400	0.167800
O21101	O2110	0.382000	0.526600	0.330000
O21111	O2111	0.329500	0.606500	0.217100
O21121	O2112	0.366100	0.573400	0.199600
O21131	O2113	0.341300	0.530500	0.211700
O21141	O2114	0.372500	0.527900	0.178300
Al4541	Al454	0.329900	0.133800	0.780500
Al4551	Al455	0.355800	0.038400	0.811200
Al4561	Al456	0.361600	0.095300	0.722400
P4541	P454	0.370400	0.088800	0.781100
P4551	P455	0.316200	0.134700	0.720800
P4561	P456	0.351700	0.046000	0.688300
O21151	O2115	0.373900	0.080900	0.750400
O21161	O2116	0.387300	0.114100	0.787000
O21171	O2117	0.340900	0.101700	0.781300
O21181	O2118	0.371200	0.065900	0.798800
O21191	O2119	0.309300	0.135100	0.753200
O21201	O2120	0.297100	0.134600	0.699600
O21211	O2121	0.336500	0.157300	0.718100
O21221	O2122	0.336800	0.028300	0.785900
O21231	O2123	0.330400	0.055400	0.667800
O21241	O2124	0.382000	0.026600	0.830000
O21251	O2125	0.329500	0.106500	0.717100
O21261	O2126	0.366100	0.073400	0.699600
O21271	O2127	0.341300	0.030500	0.711700
O21281	O2128	0.372500	0.027900	0.678300
Al4571	Al457	0.170100	0.633800	0.219500
Al4581	Al458	0.144200	0.538400	0.188800
Al4591	Al459	0.138400	0.595300	0.277600
P4571	P457	0.129600	0.588800	0.218900
P4581	P458	0.183800	0.634700	0.279200
P4591	P459	0.148300	0.546000	0.311700
O21291	O2129	0.126100	0.580900	0.249600
O21301	O2130	0.112700	0.614100	0.213000
O21311	O2131	0.159100	0.601700	0.218700
O21321	O2132	0.128800	0.565900	0.201200
O21331	O2133	0.190700	0.635100	0.246800
O21341	O2134	0.202900	0.634600	0.300400
O21351	O2135	0.163500	0.657300	0.281900
O21361	O2136	0.163200	0.528300	0.214100
O21371	O2137	0.169600	0.555400	0.332200
O21381	O2138	0.118000	0.526600	0.170000
O21391	O2139	0.170500	0.606500	0.282900
O21401	O2140	0.133900	0.573400	0.300400
O21411	O2141	0.158700	0.530500	0.288300
O21421	O2142	0.127500	0.527900	0.321700
Al4601	Al460	0.170100	0.133800	0.719500
Al4611	Al461	0.144200	0.038400	0.688800
Al4621	Al462	0.138400	0.095300	0.777600
P4601	P460	0.129600	0.088800	0.718900
P4611	P461	0.183800	0.134700	0.779200
P4621	P462	0.148300	0.046000	0.811700
O21431	O2143	0.126100	0.080900	0.749600
O21441	O2144	0.112700	0.114100	0.713000
O21451	O2145	0.159100	0.101700	0.718700
O21461	O2146	0.128800	0.065900	0.701200
O21471	O2147	0.190700	0.135100	0.746800
O21481	O2148	0.202900	0.134600	0.800400
O21491	O2149	0.163500	0.157300	0.781900
O21501	O2150	0.163200	0.028300	0.714100
O21511	O2151	0.169600	0.055400	0.832200
O21521	O2152	0.118000	0.026600	0.670000
O21531	O2153	0.170500	0.106500	0.782900
O21541	O2154	0.133900	0.073400	0.800400
O21551	O2155	0.158700	0.030500	0.788300
O21561	O2156	0.127500	0.027900	0.821700
Al4631	Al463	0.670100	0.633800	0.719500
Al4641	Al464	0.644200	0.538400	0.688800
Al4651	Al465	0.638400	0.595300	0.777600
P4631	P463	0.629600	0.588800	0.718900
P4641	P464	0.683800	0.634700	0.779200
P4651	P465	0.648300	0.546000	0.811700
O21571	O2157	0.626100	0.580900	0.749600
O21581	O2158	0.612700	0.614100	0.713000
O21591	O2159	0.659100	0.601700	0.718700
O21601	O2160	0.628800	0.565900	0.701200
O21611	O2161	0.690700	0.635100	0.746800
O21621	O2162	0.702900	0.634600	0.800400
O21631	O2163	0.663500	0.657300	0.781900
O21641	O2164	0.663200	0.528300	0.714100
O21651	O2165	0.669600	0.555400	0.832200
O21661	O2166	0.618000	0.526600	0.670000
O21671	O2167	0.670500	0.606500	0.782900
O21681	O2168	0.633900	0.573400	0.800400
O21691	O2169	0.658700	0.530500	0.788300
O21701	O2170	0.627500	0.527900	0.821700
Al4661	Al466	0.670100	0.133800	0.219500
Al4671	Al467	0.644200	0.038400	0.188800
Al4681	Al468	0.638400	0.095300	0.277600
P4661	P466	0.629600	0.088800	0.218900
P4671	P467	0.683800	0.134700	0.279200
P4681	P468	0.648300	0.046000	0.311700
O21711	O2171	0.626100	0.080900	0.249600
O21721	O2172	0.612700	0.114100	0.213000
O21731	O2173	0.659100	0.101700	0.218700
O21741	O2174	0.628800	0.065900	0.201200
O21751	O2175	0.690700	0.135100	0.246800
O21761	O2176	0.702900	0.134600	0.300400
O21771	O2177	0.663500	0.157300	0.281900
O21781	O2178	0.663200	0.028300	0.214100
O21791	O2179	0.669600	0.055400	0.332200
O21801	O2180	0.618000	0.026600	0.170000
O21811	O2181	0.670500	0.106500	0.282900
O21821	O2182	0.633900	0.073400	0.300400
O21831	O2183	0.658700	0.030500	0.288300
O21841	O2184	0.627500	0.027900	0.321700
Al4691	Al469	0.829900	0.366200	0.219500
Al4701	Al470	0.855800	0.461600	0.188800
Al4711	Al471	0.861600	0.404700	0.277600
P4691	P469	0.870400	0.411200	0.218900
P4701	P470	0.816200	0.365300	0.279200
P4711	P471	0.851700	0.454000	0.311700
O21851	O2185	0.873900	0.419100	0.249600
O21861	O2186	0.887300	0.385900	0.213000
O21871	O2187	0.840900	0.398300	0.218700
O21881	O2188	0.871200	0.434100	0.201200
O21891	O2189	0.809300	0.364900	0.246800
O21901	O2190	0.797100	0.365400	0.300400
O21911	O2191	0.836500	0.342700	0.281900
O21921	O2192	0.836800	0.471700	0.214100
O21931	O2193	0.830400	0.444600	0.332200
O21941	O2194	0.882000	0.473400	0.170000
O21951	O2195	0.829500	0.393500	0.282900
O21961	O2196	0.866100	0.426600	0.300400
O21971	O2197	0.841300	0.469500	0.288300
O21981	O2198	0.872500	0.472100	0.321700
Al4721	Al472	0.829900	0.866200	0.719500
Al4731	Al473	0.855800	0.961600	0.688800
Al4741	Al474	0.861600	0.904700	0.777600
P4721	P472	0.870400	0.911200	0.718900
P4731	P473	0.816200	0.865300	0.779200
P4741	P474	0.851700	0.954000	0.811700
O21991	O2199	0.873900	0.919100	0.749600
O22001	O2200	0.887300	0.885900	0.713000
O22011	O2201	0.840900	0.898300	0.718700
O22021	O2202	0.871200	0.934100	0.701200
O22031	O2203	0.809300	0.864900	0.746800
O22041	O2204	0.797100	0.865400	0.800400
O22051	O2205	0.836500	0.842700	0.781900
O22061	O2206	0.836800	0.971700	0.714100
O22071	O2207	0.830400	0.944600	0.832200
O22081	O2208	0.882000	0.973400	0.670000
O22091	O2209	0.829500	0.893500	0.782900
O22101	O2210	0.866100	0.926600	0.800400
O22111	O2211	0.841300	0.969500	0.788300
O22121	O2212	0.872500	0.972100	0.821700
Al4751	Al475	0.329900	0.366200	0.719500
Al4761	Al476	0.355800	0.461600	0.688800
Al4771	Al477	0.361600	0.404700	0.777600
P4751	P475	0.370400	0.411200	0.718900
P4761	P476	0.316200	0.365300	0.779200
P4771	P477	0.351700	0.454000	0.811700
O22131	O2213	0.373900	0.419100	0.749600
O22141	O2214	0.387300	0.385900	0.713000
O22151	O2215	0.340900	0.398300	0.718700
O22161	O2216	0.371200	0.434100	0.701200
O22171	O2217	0.309300	0.364900	0.746800
O22181	O2218	0.297100	0.365400	0.800400
O22191	O2219	0.336500	0.342700	0.781900
O22201	O2220	0.336800	0.471700	0.714100
O22211	O2221	0.330400	0.444600	0.832200
O22221	O2222	0.382000	0.473400	0.670000
O22231	O2223	0.329500	0.393500	0.782900
O22241	O2224	0.366100	0.426600	0.800400
O22251	O2225	0.341300	0.469500	0.788300
O22261	O2226	0.372500	0.472100	0.821700
Al4781	Al478	0.329900	0.866200	0.219500
Al4791	Al479	0.355800	0.961600	0.188800
Al4801	Al480	0.361600	0.904700	0.277600
P4781	P478	0.370400	0.911200	0.218900
P4791	P479	0.316200	0.865300	0.279200
P4801	P480	0.351700	0.954000	0.311700
O22271	O2227	0.373900	0.919100	0.249600
O22281	O2228	0.387300	0.885900	0.213000
O22291	O2229	0.340900	0.898300	0.218700
O22301	O2230	0.371200	0.934100	0.201200
O22311	O2231	0.309300	0.864900	0.246800
O22321	O2232	0.297100	0.865400	0.300400
O22331	O2233	0.336500	0.842700	0.281900
O22341	O2234	0.336800	0.971700	0.214100
O22351	O2235	0.330400	0.944600	0.332200
O22361	O2236	0.382000	0.973400	0.170000
O22371	O2237	0.329500	0.893500	0.282900
O22381	O2238	0.366100	0.926600	0.300400
O22391	O2239	0.341300	0.969500	0.288300
O22401	O2240	0.372500	0.972100	0.321700
Al4811	Al481	0.366200	0.219500	0.829900
Al4821	Al482	0.461600	0.188800	0.855800
Al4831	Al483	0.404700	0.277600	0.861600
P4811	P481	0.411200	0.218900	0.870400
P4821	P482	0.365300	0.279200	0.816200
P4831	P483	0.454000	0.311700	0.851700
O22411	O2241	0.419100	0.249600	0.873900
O22421	O2242	0.385900	0.213000	0.887300
O22431	O2243	0.398300	0.218700	0.840900
O22441	O2244	0.434100	0.201200	0.871200
O22451	O2245	0.364900	0.246800	0.809300
O22461	O2246	0.365400	0.300400	0.797100
O22471	O2247	0.342700	0.281900	0.836500
O22481	O2248	0.471700	0.214100	0.836800
O22491	O2249	0.444600	0.332200	0.830400
O22501	O2250	0.473400	0.170000	0.882000
O22511	O2251	0.393500	0.282900	0.829500
O22521	O2252	0.426600	0.300400	0.866100
O22531	O2253	0.469500	0.288300	0.841300
O22541	O2254	0.472100	0.321700	0.872500
Al4841	Al484	0.366200	0.719500	0.329900
Al4851	Al485	0.461600	0.688800	0.355800
Al4861	Al486	0.404700	0.777600	0.361600
P4841	P484	0.411200	0.718900	0.370400
P4851	P485	0.365300	0.779200	0.316200
P4861	P486	0.454000	0.811700	0.351700
O22551	O2255	0.419100	0.749600	0.373900
O22561	O2256	0.385900	0.713000	0.387300
O22571	O2257	0.398300	0.718700	0.340900
O22581	O2258	0.434100	0.701200	0.371200
O22591	O2259	0.364900	0.746800	0.309300
O22601	O2260	0.365400	0.800400	0.297100
O22611	O2261	0.342700	0.781900	0.336500
O22621	O2262	0.471700	0.714100	0.336800
O22631	O2263	0.444600	0.832200	0.330400
O22641	O2264	0.473400	0.670000	0.382000
O22651	O2265	0.393500	0.782900	0.329500
O22661	O2266	0.426600	0.800400	0.366100
O22671	O2267	0.469500	0.788300	0.341300
O22681	O2268	0.472100	0.821700	0.372500
Al4871	Al487	0.866200	0.219500	0.329900
Al4881	Al488	0.961600	0.188800	0.355800
Al4891	Al489	0.904700	0.277600	0.361600
P4871	P487	0.911200	0.218900	0.370400
P4881	P488	0.865300	0.279200	0.316200
P4891	P489	0.954000	0.311700	0.351700
O22691	O2269	0.919100	0.249600	0.373900
O22701	O2270	0.885900	0.213000	0.387300
O22711	O2271	0.898300	0.218700	0.340900
O22721	O2272	0.934100	0.201200	0.371200
O22731	O2273	0.864900	0.246800	0.309300
O22741	O2274	0.865400	0.300400	0.297100
O22751	O2275	0.842700	0.281900	0.336500
O22761	O2276	0.971700	0.214100	0.336800
O22771	O2277	0.944600	0.332200	0.330400
O22781	O2278	0.973400	0.170000	0.382000
O22791	O2279	0.893500	0.282900	0.329500
O22801	O2280	0.926600	0.300400	0.366100
O22811	O2281	0.969500	0.288300	0.341300
O22821	O2282	0.972100	0.321700	0.372500
Al4901	Al490	0.866200	0.719500	0.829900
Al4911	Al491	0.961600	0.688800	0.855800
Al4921	Al492	0.904700	0.777600	0.861600
P4901	P490	0.911200	0.718900	0.870400
P4911	P491	0.865300	0.779200	0.816200
P4921	P492	0.954000	0.811700	0.851700
O22831	O2283	0.919100	0.749600	0.873900
O22841	O2284	0.885900	0.713000	0.887300
O22851	O2285	0.898300	0.718700	0.840900
O22861	O2286	0.934100	0.701200	0.871200
O22871	O2287	0.864900	0.746800	0.809300
O22881	O2288	0.865400	0.800400	0.797100
O22891	O2289	0.842700	0.781900	0.836500
O22901	O2290	0.971700	0.714100	0.836800
O22911	O2291	0.944600	0.832200	0.830400
O22921	O2292	0.973400	0.670000	0.882000
O22931	O2293	0.893500	0.782900	0.829500
O22941	O2294	0.926600	0.800400	0.866100
O22951	O2295	0.969500	0.788300	0.841300
O22961	O2296	0.972100	0.821700	0.872500
Al4931	Al493	0.633800	0.219500	0.170100
Al4941	Al494	0.538400	0.188800	0.144200
Al4951	Al495	0.595300	0.277600	0.138400
P4931	P493	0.588800	0.218900	0.129600
P4941	P494	0.634700	0.279200	0.183800
P4951	P495	0.546000	0.311700	0.148300
O22971	O2297	0.580900	0.249600	0.126100
O22981	O2298	0.614100	0.213000	0.112700
O22991	O2299	0.601700	0.218700	0.159100
O23001	O2300	0.565900	0.201200	0.128800
O23011	O2301	0.635100	0.246800	0.190700
O23021	O2302	0.634600	0.300400	0.202900
O23031	O2303	0.657300	0.281900	0.163500
O23041	O2304	0.528300	0.214100	0.163200
O23051	O2305	0.555400	0.332200	0.169600
O23061	O2306	0.526600	0.170000	0.118000
O23071	O2307	0.606500	0.282900	0.170500
O23081	O2308	0.573400	0.300400	0.133900
O23091	O2309	0.530500	0.288300	0.158700
O23101	O2310	0.527900	0.321700	0.127500
Al4961	Al496	0.633800	0.719500	0.670100
Al4971	Al497	0.538400	0.688800	0.644200
Al4981	Al498	0.595300	0.777600	0.638400
P4961	P496	0.588800	0.718900	0.629600
P4971	P497	0.634700	0.779200	0.683800
P4981	P498	0.546000	0.811700	0.648300
O23111	O2311	0.580900	0.749600	0.626100
O23121	O2312	0.614100	0.713000	0.612700
O23131	O2313	0.601700	0.718700	0.659100
O23141	O2314	0.565900	0.701200	0.628800
O23151	O2315	0.635100	0.746800	0.690700
O23161	O2316	0.634600	0.800400	0.702900
O23171	O2317	0.657300	0.781900	0.663500
O23181	O2318	0.528300	0.714100	0.663200
O23191	O2319	0.555400	0.832200	0.669600
O23201	O2320	0.526600	0.670000	0.618000
O23211	O2321	0.606500	0.782900	0.670500
O23221	O2322	0.573400	0.800400	0.633900
O23231	O2323	0.530500	0.788300	0.658700
O23241	O2324	0.527900	0.821700	0.627500
Al4991	Al499	0.133800	0.219500	0.670100
Al5001	Al500	0.038400	0.188800	0.644200
Al5011	Al501	0.095300	0.277600	0.638400
P4991	P499	0.088800	0.218900	0.629600
P5001	P500	0.134700	0.279200	0.683800
P5011	P501	0.046000	0.311700	0.648300
O23251	O2325	0.080900	0.249600	0.626100
O23261	O2326	0.114100	0.213000	0.612700
O23271	O2327	0.101700	0.218700	0.659100
O23281	O2328	0.065900	0.201200	0.628800
O23291	O2329	0.135100	0.246800	0.690700
O23301	O2330	0.134600	0.300400	0.702900
O23311	O2331	0.157300	0.281900	0.663500
O23321	O2332	0.028300	0.214100	0.663200
O23331	O2333	0.055400	0.332200	0.669600
O23341	O2334	0.026600	0.170000	0.618000
O23351	O2335	0.106500	0.282900	0.670500
O23361	O2336	0.073400	0.300400	0.633900
O23371	O2337	0.030500	0.288300	0.658700
O23381	O2338	0.027900	0.321700	0.627500
Al5021	Al502	0.133800	0.719500	0.170100
Al5031	Al503	0.038400	0.688800	0.144200
Al5041	Al504	0.095300	0.777600	0.138400
P5021	P502	0.088800	0.718900	0.129600
P5031	P503	0.134700	0.779200	0.183800
P5041	P504	0.046000	0.811700	0.148300
O23391	O2339	0.080900	0.749600	0.126100
O23401	O2340	0.114100	0.713000	0.112700
O23411	O2341	0.101700	0.718700	0.159100
O23421	O2342	0.065900	0.701200	0.128800
O23431	O2343	0.135100	0.746800	0.190700
O23441	O2344	0.134600	0.800400	0.202900
O23451	O2345	0.157300	0.781900	0.163500
O23461	O2346	0.028300	0.714100	0.163200
O23471	O2347	0.055400	0.832200	0.169600
O23481	O2348	0.026600	0.670000	0.118000
O23491	O2349	0.106500	0.782900	0.170500
O23501	O2350	0.073400	0.800400	0.133900
O23511	O2351	0.030500	0.788300	0.158700
O23521	O2352	0.027900	0.821700	0.127500
Al5051	Al505	0.633800	0.780500	0.829900
Al5061	Al506	0.538400	0.811200	0.855800
Al5071	Al507	0.595300	0.722400	0.861600
P5051	P505	0.588800	0.781100	0.870400
P5061	P506	0.634700	0.720800	0.816200
P5071	P507	0.546000	0.688300	0.851700
O23531	O2353	0.580900	0.750400	0.873900
O23541	O2354	0.614100	0.787000	0.887300
O23551	O2355	0.601700	0.781300	0.840900
O23561	O2356	0.565900	0.798800	0.871200
O23571	O2357	0.635100	0.753200	0.809300
O23581	O2358	0.634600	0.699600	0.797100
O23591	O2359	0.657300	0.718100	0.836500
O23601	O2360	0.528300	0.785900	0.836800
O23611	O2361	0.555400	0.667800	0.830400
O23621	O2362	0.526600	0.830000	0.882000
O23631	O2363	0.606500	0.717100	0.829500
O23641	O2364	0.573400	0.699600	0.866100
O23651	O2365	0.530500	0.711700	0.841300
O23661	O2366	0.527900	0.678300	0.872500
Al5081	Al508	0.633800	0.280500	0.329900
Al5091	Al509	0.538400	0.311200	0.355800
Al5101	Al510	0.595300	0.222400	0.361600
P5081	P508	0.588800	0.281100	0.370400
P5091	P509	0.634700	0.220800	0.316200
P5101	P510	0.546000	0.188300	0.351700
O23671	O2367	0.580900	0.250400	0.373900
O23681	O2368	0.614100	0.287000	0.387300
O23691	O2369	0.601700	0.281300	0.340900
O23701	O2370	0.565900	0.298800	0.371200
O23711	O2371	0.635100	0.253200	0.309300
O23721	O2372	0.634600	0.199600	0.297100
O23731	O2373	0.657300	0.218100	0.336500
O23741	O2374	0.528300	0.285900	0.336800
O23751	O2375	0.555400	0.167800	0.330400
O23761	O2376	0.526600	0.330000	0.382000
O23771	O2377	0.606500	0.217100	0.329500
O23781	O2378	0.573400	0.199600	0.366100
O23791	O2379	0.530500	0.211700	0.341300
O23801	O2380	0.527900	0.178300	0.372500
Al5111	Al511	0.133800	0.780500	0.329900
Al5121	Al512	0.038400	0.811200	0.355800
Al5131	Al513	0.095300	0.722400	0.361600
P5111	P511	0.088800	0.781100	0.370400
P5121	P512	0.134700	0.720800	0.316200
P5131	P513	0.046000	0.688300	0.351700
O23811	O2381	0.080900	0.750400	0.373900
O23821	O2382	0.114100	0.787000	0.387300
O23831	O2383	0.101700	0.781300	0.340900
O23841	O2384	0.065900	0.798800	0.371200
O23851	O2385	0.135100	0.753200	0.309300
O23861	O2386	0.134600	0.699600	0.297100
O23871	O2387	0.157300	0.718100	0.336500
O23881	O2388	0.028300	0.785900	0.336800
O23891	O2389	0.055400	0.667800	0.330400
O23901	O2390	0.026600	0.830000	0.382000
O23911	O2391	0.106500	0.717100	0.329500
O23921	O2392	0.073400	0.699600	0.366100
O23931	O2393	0.030500	0.711700	0.341300
O23941	O2394	0.027900	0.678300	0.372500
Al5141	Al514	0.133800	0.280500	0.829900
Al5151	Al515	0.038400	0.311200	0.855800
Al5161	Al516	0.095300	0.222400	0.861600
P5141	P514	0.088800	0.281100	0.870400
P5151	P515	0.134700	0.220800	0.816200
P5161	P516	0.046000	0.188300	0.851700
O23951	O2395	0.080900	0.250400	0.873900
O23961	O2396	0.114100	0.287000	0.887300
O23971	O2397	0.101700	0.281300	0.840900
O23981	O2398	0.065900	0.298800	0.871200
O23991	O2399	0.135100	0.253200	0.809300
O24001	O2400	0.134600	0.199600	0.797100
O24011	O2401	0.157300	0.218100	0.836500
O24021	O2402	0.028300	0.285900	0.836800
O24031	O2403	0.055400	0.167800	0.830400
O24041	O2404	0.026600	0.330000	0.882000
O24051	O2405	0.106500	0.217100	0.829500
O24061	O2406	0.073400	0.199600	0.866100
O24071	O2407	0.030500	0.211700	0.841300
O24081	O2408	0.027900	0.178300	0.872500
Al5171	Al517	0.366200	0.780500	0.170100
Al5181	Al518	0.461600	0.811200	0.144200
Al5191	Al519	0.404700	0.722400	0.138400
P5171	P517	0.411200	0.781100	0.129600
P5181	P518	0.365300	0.720800	0.183800
P5191	P519	0.454000	0.688300	0.148300
O24091	O2409	0.419100	0.750400	0.126100
O24101	O2410	0.385900	0.787000	0.112700
O24111	O2411	0.398300	0.781300	0.159100
O24121	O2412	0.434100	0.798800	0.128800
O24131	O2413	0.364900	0.753200	0.190700
O24141	O2414	0.365400	0.699600	0.202900
O24151	O2415	0.342700	0.718100	0.163500
O24161	O2416	0.471700	0.785900	0.163200
O24171	O2417	0.444600	0.667800	0.169600
O24181	O2418	0.473400	0.830000	0.118000
O24191	O2419	0.393500	0.717100	0.170500
O24201	O2420	0.426600	0.699600	0.133900
O24211	O2421	0.469500	0.711700	0.158700
O24221	O2422	0.472100	0.678300	0.127500
Al5201	Al520	0.366200	0.280500	0.670100
Al5211	Al521	0.461600	0.311200	0.644200
Al5221	Al522	0.404700	0.222400	0.638400
P5201	P520	0.411200	0.281100	0.629600
P5211	P521	0.365300	0.220800	0.683800
P5221	P522	0.454000	0.188300	0.648300
O24231	O2423	0.419100	0.250400	0.626100
O24241	O2424	0.385900	0.287000	0.612700
O24251	O2425	0.398300	0.281300	0.659100
O24261	O2426	0.434100	0.298800	0.628800
O24271	O2427	0.364900	0.253200	0.690700
O24281	O2428	0.365400	0.199600	0.702900
O24291	O2429	0.342700	0.218100	0.663500
O24301	O2430	0.471700	0.285900	0.663200
O24311	O2431	0.444600	0.167800	0.669600
O24321	O2432	0.473400	0.330000	0.618000
O24331	O2433	0.393500	0.217100	0.670500
O24341	O2434	0.426600	0.199600	0.633900
O24351	O2435	0.469500	0.211700	0.658700
O24361	O2436	0.472100	0.178300	0.627500
Al5231	Al523	0.866200	0.780500	0.670100
Al5241	Al524	0.961600	0.811200	0.644200
Al5251	Al525	0.904700	0.722400	0.638400
P5231	P523	0.911200	0.781100	0.629600
P5241	P524	0.865300	0.720800	0.683800
P5251	P525	0.954000	0.688300	0.648300
O24371	O2437	0.919100	0.750400	0.626100
O24381	O2438	0.885900	0.787000	0.612700
O24391	O2439	0.898300	0.781300	0.659100
O24401	O2440	0.934100	0.798800	0.628800
O24411	O2441	0.864900	0.753200	0.690700
O24421	O2442	0.865400	0.699600	0.702900
O24431	O2443	0.842700	0.718100	0.663500
O24441	O2444	0.971700	0.785900	0.663200
O24451	O2445	0.944600	0.667800	0.669600
O24461	O2446	0.973400	0.830000	0.618000
O24471	O2447	0.893500	0.717100	0.670500
O24481	O2448	0.926600	0.699600	0.633900
O24491	O2449	0.969500	0.711700	0.658700
O24501	O2450	0.972100	0.678300	0.627500
Al5261	Al526	0.866200	0.280500	0.170100
Al5271	Al527	0.961600	0.311200	0.144200
Al5281	Al528	0.904700	0.222400	0.138400
P5261	P526	0.911200	0.281100	0.129600
P5271	P527	0.865300	0.220800	0.183800
P5281	P528	0.954000	0.188300	0.148300
O24511	O2451	0.919100	0.250400	0.126100
O24521	O2452	0.885900	0.287000	0.112700
O24531	O2453	0.898300	0.281300	0.159100
O24541	O2454	0.934100	0.298800	0.128800
O24551	O2455	0.864900	0.253200	0.190700
O24561	O2456	0.865400	0.199600	0.202900
O24571	O2457	0.842700	0.218100	0.163500
O24581	O2458	0.971700	0.285900	0.163200
O24591	O2459	0.944600	0.167800	0.169600
O24601	O2460	0.973400	0.330000	0.118000
O24611	O2461	0.893500	0.217100	0.170500
O24621	O2462	0.926600	0.199600	0.133900
O24631	O2463	0.969500	0.211700	0.158700
O24641	O2464	0.972100	0.178300	0.127500
Al5291	Al529	0.219500	0.170100	0.633800
Al5301	Al530	0.188800	0.144200	0.538400
Al5311	Al531	0.277600	0.138400	0.595300
P5291	P529	0.218900	0.129600	0.588800
P5301	P530	0.279200	0.183800	0.634700
P5311	P531	0.311700	0.148300	0.546000
O24651	O2465	0.249600	0.126100	0.580900
O24661	O2466	0.213000	0.112700	0.614100
O24671	O2467	0.218700	0.159100	0.601700
O24681	O2468	0.201200	0.128800	0.565900
O24691	O2469	0.246800	0.190700	0.635100
O24701	O2470	0.300400	0.202900	0.634600
O24711	O2471	0.281900	0.163500	0.657300
O24721	O2472	0.214100	0.163200	0.528300
O24731	O2473	0.332200	0.169600	0.555400
O24741	O2474	0.170000	0.118000	0.526600
O24751	O2475	0.282900	0.170500	0.606500
O24761	O2476	0.300400	0.133900	0.573400
O24771	O2477	0.288300	0.158700	0.530500
O24781	O2478	0.321700	0.127500	0.527900
Al5321	Al532	0.219500	0.670100	0.133800
Al5331	Al533	0.188800	0.644200	0.038400
Al5341	Al534	0.277600	0.638400	0.095300
P5321	P532	0.218900	0.629600	0.088800
P5331	P533	0.279200	0.683800	0.134700
P5341	P534	0.311700	0.648300	0.046000
O24791	O2479	0.249600	0.626100	0.080900
O24801	O2480	0.213000	0.612700	0.114100
O24811	O2481	0.218700	0.659100	0.101700
O24821	O2482	0.201200	0.628800	0.065900
O24831	O2483	0.246800	0.690700	0.135100
O24841	O2484	0.300400	0.702900	0.134600
O24851	O2485	0.281900	0.663500	0.157300
O24861	O2486	0.214100	0.663200	0.028300
O24871	O2487	0.332200	0.669600	0.055400
O24881	O2488	0.170000	0.618000	0.026600
O24891	O2489	0.282900	0.670500	0.106500
O24901	O2490	0.300400	0.633900	0.073400
O24911	O2491	0.288300	0.658700	0.030500
O24921	O2492	0.321700	0.627500	0.027900
Al5351	Al535	0.719500	0.170100	0.133800
Al5361	Al536	0.688800	0.144200	0.038400
Al5371	Al537	0.777600	0.138400	0.095300
P5351	P535	0.718900	0.129600	0.088800
P5361	P536	0.779200	0.183800	0.134700
P5371	P537	0.811700	0.148300	0.046000
O24931	O2493	0.749600	0.126100	0.080900
O24941	O2494	0.713000	0.112700	0.114100
O24951	O2495	0.718700	0.159100	0.101700
O24961	O2496	0.701200	0.128800	0.065900
O24971	O2497	0.746800	0.190700	0.135100
O24981	O2498	0.800400	0.202900	0.134600
O24991	O2499	0.781900	0.163500	0.157300
O25001	O2500	0.714100	0.163200	0.028300
O25011	O2501	0.832200	0.169600	0.055400
O25021	O2502	0.670000	0.118000	0.026600
O25031	O2503	0.782900	0.170500	0.106500
O25041	O2504	0.800400	0.133900	0.073400
O25051	O2505	0.788300	0.158700	0.030500
O25061	O2506	0.821700	0.127500	0.027900
Al5381	Al538	0.719500	0.670100	0.633800
Al5391	Al539	0.688800	0.644200	0.538400
Al5401	Al540	0.777600	0.638400	0.595300
P5381	P538	0.718900	0.629600	0.588800
P5391	P539	0.779200	0.683800	0.634700
P5401	P540	0.811700	0.648300	0.546000
O25071	O2507	0.749600	0.626100	0.580900
O25081	O2508	0.713000	0.612700	0.614100
O25091	O2509	0.718700	0.659100	0.601700
O25101	O2510	0.701200	0.628800	0.565900
O25111	O2511	0.746800	0.690700	0.635100
O25121	O2512	0.800400	0.702900	0.634600
O25131	O2513	0.781900	0.663500	0.657300
O25141	O2514	0.714100	0.663200	0.528300
O25151	O2515	0.832200	0.669600	0.555400
O25161	O2516	0.670000	0.618000	0.526600
O25171	O2517	0.782900	0.670500	0.606500
O25181	O2518	0.800400	0.633900	0.573400
O25191	O2519	0.788300	0.658700	0.530500
O25201	O2520	0.821700	0.627500	0.527900
Al5411	Al541	0.219500	0.829900	0.366200
Al5421	Al542	0.188800	0.855800	0.461600
Al5431	Al543	0.277600	0.861600	0.404700
P5411	P541	0.218900	0.870400	0.411200
P5421	P542	0.279200	0.816200	0.365300
P5431	P543	0.311700	0.851700	0.454000
O25211	O2521	0.249600	0.873900	0.419100
O25221	O2522	0.213000	0.887300	0.385900
O25231	O2523	0.218700	0.840900	0.398300
O25241	O2524	0.201200	0.871200	0.434100
O25251	O2525	0.246800	0.809300	0.364900
O25261	O2526	0.300400	0.797100	0.365400
O25271	O2527	0.281900	0.836500	0.342700
O25281	O2528	0.214100	0.836800	0.471700
O25291	O2529	0.332200	0.830400	0.444600
O25301	O2530	0.170000	0.882000	0.473400
O25311	O2531	0.282900	0.829500	0.393500
O25321	O2532	0.300400	0.866100	0.426600
O25331	O2533	0.288300	0.841300	0.469500
O25341	O2534	0.321700	0.872500	0.472100
Al5441	Al544	0.219500	0.329900	0.866200
Al5451	Al545	0.188800	0.355800	0.961600
Al5461	Al546	0.277600	0.361600	0.904700
P5441	P544	0.218900	0.370400	0.911200
P5451	P545	0.279200	0.316200	0.865300
P5461	P546	0.311700	0.351700	0.954000
O25351	O2535	0.249600	0.373900	0.919100
O25361	O2536	0.213000	0.387300	0.885900
O25371	O2537	0.218700	0.340900	0.898300
O25381	O2538	0.201200	0.371200	0.934100
O25391	O2539	0.246800	0.309300	0.864900
O25401	O2540	0.300400	0.297100	0.865400
O25411	O2541	0.281900	0.336500	0.842700
O25421	O2542	0.214100	0.336800	0.971700
O25431	O2543	0.332200	0.330400	0.944600
O25441	O2544	0.170000	0.382000	0.973400
O25451	O2545	0.282900	0.329500	0.893500
O25461	O2546	0.300400	0.366100	0.926600
O25471	O2547	0.288300	0.341300	0.969500
O25481	O2548	0.321700	0.372500	0.972100
Al5471	Al547	0.719500	0.829900	0.866200
Al5481	Al548	0.688800	0.855800	0.961600
Al5491	Al549	0.777600	0.861600	0.904700
P5471	P547	0.718900	0.870400	0.911200
P5481	P548	0.779200	0.816200	0.865300
P5491	P549	0.811700	0.851700	0.954000
O25491	O2549	0.749600	0.873900	0.919100
O25501	O2550	0.713000	0.887300	0.885900
O25511	O2551	0.718700	0.840900	0.898300
O25521	O2552	0.701200	0.871200	0.934100
O25531	O2553	0.746800	0.809300	0.864900
O25541	O2554	0.800400	0.797100	0.865400
O25551	O2555	0.781900	0.836500	0.842700
O25561	O2556	0.714100	0.836800	0.971700
O25571	O2557	0.832200	0.830400	0.944600
O25581	O2558	0.670000	0.882000	0.973400
O25591	O2559	0.782900	0.829500	0.893500
O25601	O2560	0.800400	0.866100	0.926600
O25611	O2561	0.788300	0.841300	0.969500
O25621	O2562	0.821700	0.872500	0.972100
Al5501	Al550	0.719500	0.329900	0.366200
Al5511	Al551	0.688800	0.355800	0.461600
Al5521	Al552	0.777600	0.361600	0.404700
P5501	P550	0.718900	0.370400	0.411200
P5511	P551	0.779200	0.316200	0.365300
P5521	P552	0.811700	0.351700	0.454000
O25631	O2563	0.749600	0.373900	0.419100
O25641	O2564	0.713000	0.387300	0.385900
O25651	O2565	0.718700	0.340900	0.398300
O25661	O2566	0.701200	0.371200	0.434100
O25671	O2567	0.746800	0.309300	0.364900
O25681	O2568	0.800400	0.297100	0.365400
O25691	O2569	0.781900	0.336500	0.342700
O25701	O2570	0.714100	0.336800	0.471700
O25711	O2571	0.832200	0.330400	0.444600
O25721	O2572	0.670000	0.382000	0.473400
O25731	O2573	0.782900	0.329500	0.393500
O25741	O2574	0.800400	0.366100	0.426600
O25751	O2575	0.788300	0.341300	0.469500
O25761	O2576	0.821700	0.372500	0.472100
Al5531	Al553	0.780500	0.170100	0.366200
Al5541	Al554	0.811200	0.144200	0.461600
Al5551	Al555	0.722400	0.138400	0.404700
P5531	P553	0.781100	0.129600	0.411200
P5541	P554	0.720800	0.183800	0.365300
P5551	P555	0.688300	0.148300	0.454000
O25771	O2577	0.750400	0.126100	0.419100
O25781	O2578	0.787000	0.112700	0.385900
O25791	O2579	0.781300	0.159100	0.398300
O25801	O2580	0.798800	0.128800	0.434100
O25811	O2581	0.753200	0.190700	0.364900
O25821	O2582	0.699600	0.202900	0.365400
O25831	O2583	0.718100	0.163500	0.342700
O25841	O2584	0.785900	0.163200	0.471700
O25851	O2585	0.667800	0.169600	0.444600
O25861	O2586	0.830000	0.118000	0.473400
O25871	O2587	0.717100	0.170500	0.393500
O25881	O2588	0.699600	0.133900	0.426600
O25891	O2589	0.711700	0.158700	0.469500
O25901	O2590	0.678300	0.127500	0.472100
Al5561	Al556	0.780500	0.670100	0.866200
Al5571	Al557	0.811200	0.644200	0.961600
Al5581	Al558	0.722400	0.638400	0.904700
P5561	P556	0.781100	0.629600	0.911200
P5571	P557	0.720800	0.683800	0.865300
P5581	P558	0.688300	0.648300	0.954000
O25911	O2591	0.750400	0.626100	0.919100
O25921	O2592	0.787000	0.612700	0.885900
O25931	O2593	0.781300	0.659100	0.898300
O25941	O2594	0.798800	0.628800	0.934100
O25951	O2595	0.753200	0.690700	0.864900
O25961	O2596	0.699600	0.702900	0.865400
O25971	O2597	0.718100	0.663500	0.842700
O25981	O2598	0.785900	0.663200	0.971700
O25991	O2599	0.667800	0.669600	0.944600
O26001	O2600	0.830000	0.618000	0.973400
O26011	O2601	0.717100	0.670500	0.893500
O26021	O2602	0.699600	0.633900	0.926600
O26031	O2603	0.711700	0.658700	0.969500
O26041	O2604	0.678300	0.627500	0.972100
Al5591	Al559	0.280500	0.170100	0.866200
Al5601	Al560	0.311200	0.144200	0.961600
Al5611	Al561	0.222400	0.138400	0.904700
P5591	P559	0.281100	0.129600	0.911200
P5601	P560	0.220800	0.183800	0.865300
P5611	P561	0.188300	0.148300	0.954000
O26051	O2605	0.250400	0.126100	0.919100
O26061	O2606	0.287000	0.112700	0.885900
O26071	O2607	0.281300	0.159100	0.898300
O26081	O2608	0.298800	0.128800	0.934100
O26091	O2609	0.253200	0.190700	0.864900
O26101	O2610	0.199600	0.202900	0.865400
O26111	O2611	0.218100	0.163500	0.842700
O26121	O2612	0.285900	0.163200	0.971700
O26131	O2613	0.167800	0.169600	0.944600
O26141	O2614	0.330000	0.118000	0.973400
O26151	O2615	0.217100	0.170500	0.893500
O26161	O2616	0.199600	0.133900	0.926600
O26171	O2617	0.211700	0.158700	0.969500
O26181	O2618	0.178300	0.127500	0.972100
Al5621	Al562	0.280500	0.670100	0.366200
Al5631	Al563	0.311200	0.644200	0.461600
Al5641	Al564	0.222400	0.638400	0.404700
P5621	P562	0.281100	0.629600	0.411200
P5631	P563	0.220800	0.683800	0.365300
P5641	P564	0.188300	0.648300	0.454000
O26191	O2619	0.250400	0.626100	0.419100
O26201	O2620	0.287000	0.612700	0.385900
O26211	O2621	0.281300	0.659100	0.398300
O26221	O2622	0.298800	0.628800	0.434100
O26231	O2623	0.253200	0.690700	0.364900
O26241	O2624	0.199600	0.702900	0.365400
O26251	O2625	0.218100	0.663500	0.342700
O26261	O2626	0.285900	0.663200	0.471700
O26271	O2627	0.167800	0.669600	0.444600
O26281	O2628	0.330000	0.618000	0.473400
O26291	O2629	0.217100	0.670500	0.393500
O26301	O2630	0.199600	0.633900	0.426600
O26311	O2631	0.211700	0.658700	0.469500
O26321	O2632	0.178300	0.627500	0.472100
Al5651	Al565	0.780500	0.829900	0.633800
Al5661	Al566	0.811200	0.855800	0.538400
Al5671	Al567	0.722400	0.861600	0.595300
P5651	P565	0.781100	0.870400	0.588800
P5661	P566	0.720800	0.816200	0.634700
P5671	P567	0.688300	0.851700	0.546000
O26331	O2633	0.750400	0.873900	0.580900
O26341	O2634	0.787000	0.887300	0.614100
O26351	O2635	0.781300	0.840900	0.601700
O26361	O2636	0.798800	0.871200	0.565900
O26371	O2637	0.753200	0.809300	0.635100
O26381	O2638	0.699600	0.797100	0.634600
O26391	O2639	0.718100	0.836500	0.657300
O26401	O2640	0.785900	0.836800	0.528300
O26411	O2641	0.667800	0.830400	0.555400
O26421	O2642	0.830000	0.882000	0.526600
O26431	O2643	0.717100	0.829500	0.606500
O26441	O2644	0.699600	0.866100	0.573400
O26451	O2645	0.711700	0.841300	0.530500
O26461	O2646	0.678300	0.872500	0.527900
Al5681	Al568	0.780500	0.329900	0.133800
Al5691	Al569	0.811200	0.355800	0.038400
Al5701	Al570	0.722400	0.361600	0.095300
P5681	P568	0.781100	0.370400	0.088800
P5691	P569	0.720800	0.316200	0.134700
P5701	P570	0.688300	0.351700	0.046000
O26471	O2647	0.750400	0.373900	0.080900
O26481	O2648	0.787000	0.387300	0.114100
O26491	O2649	0.781300	0.340900	0.101700
O26501	O2650	0.798800	0.371200	0.065900
O26511	O2651	0.753200	0.309300	0.135100
O26521	O2652	0.699600	0.297100	0.134600
O26531	O2653	0.718100	0.336500	0.157300
O26541	O2654	0.785900	0.336800	0.028300
O26551	O2655	0.667800	0.330400	0.055400
O26561	O2656	0.830000	0.382000	0.026600
O26571	O2657	0.717100	0.329500	0.106500
O26581	O2658	0.699600	0.366100	0.073400
O26591	O2659	0.711700	0.341300	0.030500
O26601	O2660	0.678300	0.372500	0.027900
Al5711	Al571	0.280500	0.829900	0.133800
Al5721	Al572	0.311200	0.855800	0.038400
Al5731	Al573	0.222400	0.861600	0.095300
P5711	P571	0.281100	0.870400	0.088800
P5721	P572	0.220800	0.816200	0.134700
P5731	P573	0.188300	0.851700	0.046000
O26611	O2661	0.250400	0.873900	0.080900
O26621	O2662	0.287000	0.887300	0.114100
O26631	O2663	0.281300	0.840900	0.101700
O26641	O2664	0.298800	0.871200	0.065900
O26651	O2665	0.253200	0.809300	0.135100
O26661	O2666	0.199600	0.797100	0.134600
O26671	O2667	0.218100	0.836500	0.157300
O26681	O2668	0.285900	0.836800	0.028300
O26691	O2669	0.167800	0.830400	0.055400
O26701	O2670	0.330000	0.882000	0.026600
O26711	O2671	0.217100	0.829500	0.106500
O26721	O2672	0.199600	0.866100	0.073400
O26731	O2673	0.211700	0.841300	0.030500
O26741	O2674	0.178300	0.872500	0.027900
Al5741	Al574	0.280500	0.329900	0.633800
Al5751	Al575	0.311200	0.355800	0.538400
Al5761	Al576	0.222400	0.361600	0.595300
P5741	P574	0.281100	0.370400	0.588800
P5751	P575	0.220800	0.316200	0.634700
P5761	P576	0.188300	0.351700	0.546000
O26751	O2675	0.250400	0.373900	0.580900
O26761	O2676	0.287000	0.387300	0.614100
O26771	O2677	0.281300	0.340900	0.601700
O26781	O2678	0.298800	0.371200	0.565900
O26791	O2679	0.253200	0.309300	0.635100
O26801	O2680	0.199600	0.297100	0.634600
O26811	O2681	0.218100	0.336500	0.657300
O26821	O2682	0.285900	0.336800	0.528300
O26831	O2683	0.167800	0.330400	0.555400
O26841	O2684	0.330000	0.382000	0.526600
O26851	O2685	0.217100	0.329500	0.606500
O26861	O2686	0.199600	0.366100	0.573400
O26871	O2687	0.211700	0.341300	0.530500
O26881	O2688	0.178300	0.372500	0.527900
Al5771	Al577	0.000000	0.323800	0.216700
Al5781	Al578	0.000000	0.379600	0.158600
P5771	P577	0.000000	0.322300	0.277800
P5781	P578	0.000000	0.390000	0.344500
O26891	O2689	0.000000	0.321100	0.248200
O26901	O2690	0.000000	0.294100	0.291000
O26911	O2691	0.000000	0.374400	0.371900
O26921	O2692	0.000000	0.420200	0.350900
Al5791	Al579	0.000000	0.823800	0.716700
Al5801	Al580	0.000000	0.879600	0.658600
P5791	P579	0.000000	0.822300	0.777800
P5801	P580	0.000000	0.890000	0.844500
O26931	O2693	0.000000	0.821100	0.748200
O26941	O2694	0.000000	0.794100	0.791000
O26951	O2695	0.000000	0.874400	0.871900
O26961	O2696	0.000000	0.920200	0.850900
Al5811	Al581	0.500000	0.323800	0.716700
Al5821	Al582	0.500000	0.379600	0.658600
P5811	P581	0.500000	0.322300	0.777800
P5821	P582	0.500000	0.390000	0.844500
O26971	O2697	0.500000	0.321100	0.748200
O26981	O2698	0.500000	0.294100	0.791000
O26991	O2699	0.500000	0.374400	0.871900
O27001	O2700	0.500000	0.420200	0.850900
Al5831	Al583	0.500000	0.823800	0.216700
Al5841	Al584	0.500000	0.879600	0.158600
P5831	P583	0.500000	0.822300	0.277800
P5841	P584	0.500000	0.890000	0.344500
O27011	O2701	0.500000	0.821100	0.248200
O27021	O2702	0.500000	0.794100	0.291000
O27031	O2703	0.500000	0.874400	0.371900
O27041	O2704	0.500000	0.920200	0.350900
Al5851	Al585	0.000000	0.676200	0.216700
Al5861	Al586	0.000000	0.620400	0.158600
P5851	P585	0.000000	0.677700	0.277800
P5861	P586	0.000000	0.610000	0.344500
O27051	O2705	0.000000	0.678900	0.248200
O27061	O2706	0.000000	0.705900	0.291000
O27071	O2707	0.000000	0.625600	0.371900
O27081	O2708	0.000000	0.579800	0.350900
Al5871	Al587	0.000000	0.176200	0.716700
Al5881	Al588	0.000000	0.120400	0.658600
P5871	P587	0.000000	0.177700	0.777800
P5881	P588	0.000000	0.110000	0.844500
O27091	O2709	0.000000	0.178900	0.748200
O27101	O2710	0.000000	0.205900	0.791000
O27111	O2711	0.000000	0.125600	0.871900
O27121	O2712	0.000000	0.079800	0.850900
Al5891	Al589	0.500000	0.676200	0.716700
Al5901	Al590	0.500000	0.620400	0.658600
P5891	P589	0.500000	0.677700	0.777800
P5901	P590	0.500000	0.610000	0.844500
O27131	O2713	0.500000	0.678900	0.748200
O27141	O2714	0.500000	0.705900	0.791000
O27151	O2715	0.500000	0.625600	0.871900
O27161	O2716	0.500000	0.579800	0.850900
Al5911	Al591	0.500000	0.176200	0.216700
Al5921	Al592	0.500000	0.120400	0.158600
P5911	P591	0.500000	0.177700	0.277800
P5921	P592	0.500000	0.110000	0.344500
O27171	O2717	0.500000	0.178900	0.248200
O27181	O2718	0.500000	0.205900	0.291000
O27191	O2719	0.500000	0.125600	0.371900
O27201	O2720	0.500000	0.079800	0.350900
Al5931	Al593	0.000000	0.323800	0.783300
Al5941	Al594	0.000000	0.379600	0.841400
P5931	P593	0.000000	0.322300	0.722200
P5941	P594	0.000000	0.390000	0.655500
O27211	O2721	0.000000	0.321100	0.751800
O27221	O2722	0.000000	0.294100	0.709000
O27231	O2723	0.000000	0.374400	0.628100
O27241	O2724	0.000000	0.420200	0.649100
Al5951	Al595	0.000000	0.823800	0.283300
Al5961	Al596	0.000000	0.879600	0.341400
P5951	P595	0.000000	0.822300	0.222200
P5961	P596	0.000000	0.890000	0.155500
O27251	O2725	0.000000	0.821100	0.251800
O27261	O2726	0.000000	0.794100	0.209000
O27271	O2727	0.000000	0.874400	0.128100
O27281	O2728	0.000000	0.920200	0.149100
Al5971	Al597	0.500000	0.323800	0.283300
Al5981	Al598	0.500000	0.379600	0.341400
P5971	P597	0.500000	0.322300	0.222200
P5981	P598	0.500000	0.390000	0.155500
O27291	O2729	0.500000	0.321100	0.251800
O27301	O2730	0.500000	0.294100	0.209000
O27311	O2731	0.500000	0.374400	0.128100
O27321	O2732	0.500000	0.420200	0.149100
Al5991	Al599	0.500000	0.823800	0.783300
Al6001	Al600	0.500000	0.879600	0.841400
P5991	P599	0.500000	0.822300	0.722200
P6001	P600	0.500000	0.890000	0.655500
O27331	O2733	0.500000	0.821100	0.751800
O27341	O2734	0.500000	0.794100	0.709000
O27351	O2735	0.500000	0.874400	0.628100
O27361	O2736	0.500000	0.920200	0.649100
Al6011	Al601	0.000000	0.676200	0.783300
Al6021	Al602	0.000000	0.620400	0.841400
P6011	P601	0.000000	0.677700	0.722200
P6021	P602	0.000000	0.610000	0.655500
O27371	O2737	0.000000	0.678900	0.751800
O27381	O2738	0.000000	0.705900	0.709000
O27391	O2739	0.000000	0.625600	0.628100
O27401	O2740	0.000000	0.579800	0.649100
Al6031	Al603	0.000000	0.176200	0.283300
Al6041	Al604	0.000000	0.120400	0.341400
P6031	P603	0.000000	0.177700	0.222200
P6041	P604	0.000000	0.110000	0.155500
O27411	O2741	0.000000	0.178900	0.251800
O27421	O2742	0.000000	0.205900	0.209000
O27431	O2743	0.000000	0.125600	0.128100
O27441	O2744	0.000000	0.079800	0.149100
Al6051	Al605	0.500000	0.676200	0.283300
Al6061	Al606	0.500000	0.620400	0.341400
P6051	P605	0.500000	0.677700	0.222200
P6061	P606	0.500000	0.610000	0.155500
O27451	O2745	0.500000	0.678900	0.251800
O27461	O2746	0.500000	0.705900	0.209000
O27471	O2747	0.500000	0.625600	0.128100
O27481	O2748	0.500000	0.579800	0.149100
Al6071	Al607	0.500000	0.176200	0.783300
Al6081	Al608	0.500000	0.120400	0.841400
P6071	P607	0.500000	0.177700	0.722200
P6081	P608	0.500000	0.110000	0.655500
O27491	O2749	0.500000	0.178900	0.751800
O27501	O2750	0.500000	0.205900	0.709000
O27511	O2751	0.500000	0.125600	0.628100
O27521	O2752	0.500000	0.079800	0.649100
Al6091	Al609	0.216700	0.000000	0.323800
Al6101	Al610	0.158600	0.000000	0.379600
P6091	P609	0.277800	0.000000	0.322300
P6101	P610	0.344500	0.000000	0.390000
O27531	O2753	0.248200	0.000000	0.321100
O27541	O2754	0.291000	0.000000	0.294100
O27551	O2755	0.371900	0.000000	0.374400
O27561	O2756	0.350900	0.000000	0.420200
Al6111	Al611	0.216700	0.500000	0.823800
Al6121	Al612	0.158600	0.500000	0.879600
P6111	P611	0.277800	0.500000	0.822300
P6121	P612	0.344500	0.500000	0.890000
O27571	O2757	0.248200	0.500000	0.821100
O27581	O2758	0.291000	0.500000	0.794100
O27591	O2759	0.371900	0.500000	0.874400
O27601	O2760	0.350900	0.500000	0.920200
Al6131	Al613	0.716700	0.000000	0.823800
Al6141	Al614	0.658600	0.000000	0.879600
P6131	P613	0.777800	0.000000	0.822300
P6141	P614	0.844500	0.000000	0.890000
O27611	O2761	0.748200	0.000000	0.821100
O27621	O2762	0.791000	0.000000	0.794100
O27631	O2763	0.871900	0.000000	0.874400
O27641	O2764	0.850900	0.000000	0.920200
Al6151	Al615	0.716700	0.500000	0.323800
Al6161	Al616	0.658600	0.500000	0.379600
P6151	P615	0.777800	0.500000	0.322300
P6161	P616	0.844500	0.500000	0.390000
O27651	O2765	0.748200	0.500000	0.321100
O27661	O2766	0.791000	0.500000	0.294100
O27671	O2767	0.871900	0.500000	0.374400
O27681	O2768	0.850900	0.500000	0.420200
Al6171	Al617	0.216700	0.000000	0.676200
Al6181	Al618	0.158600	0.000000	0.620400
P6171	P617	0.277800	0.000000	0.677700
P6181	P618	0.344500	0.000000	0.610000
O27691	O2769	0.248200	0.000000	0.678900
O27701	O2770	0.291000	0.000000	0.705900
O27711	O2771	0.371900	0.000000	0.625600
O27721	O2772	0.350900	0.000000	0.579800
Al6191	Al619	0.216700	0.500000	0.176200
Al6201	Al620	0.158600	0.500000	0.120400
P6191	P619	0.277800	0.500000	0.177700
P6201	P620	0.344500	0.500000	0.110000
O27731	O2773	0.248200	0.500000	0.178900
O27741	O2774	0.291000	0.500000	0.205900
O27751	O2775	0.371900	0.500000	0.125600
O27761	O2776	0.350900	0.500000	0.079800
Al6211	Al621	0.716700	0.000000	0.176200
Al6221	Al622	0.658600	0.000000	0.120400
P6211	P621	0.777800	0.000000	0.177700
P6221	P622	0.844500	0.000000	0.110000
O27771	O2777	0.748200	0.000000	0.178900
O27781	O2778	0.791000	0.000000	0.205900
O27791	O2779	0.871900	0.000000	0.125600
O27801	O2780	0.850900	0.000000	0.079800
Al6231	Al623	0.716700	0.500000	0.676200
Al6241	Al624	0.658600	0.500000	0.620400
P6231	P623	0.777800	0.500000	0.677700
P6241	P624	0.844500	0.500000	0.610000
O27811	O2781	0.748200	0.500000	0.678900
O27821	O2782	0.791000	0.500000	0.705900
O27831	O2783	0.871900	0.500000	0.625600
O27841	O2784	0.850900	0.500000	0.579800
Al6251	Al625	0.783300	0.000000	0.323800
Al6261	Al626	0.841400	0.000000	0.379600
P6251	P625	0.722200	0.000000	0.322300
P6261	P626	0.655500	0.000000	0.390000
O27851	O2785	0.751800	0.000000	0.321100
O27861	O2786	0.709000	0.000000	0.294100
O27871	O2787	0.628100	0.000000	0.374400
O27881	O2788	0.649100	0.000000	0.420200
Al6271	Al627	0.783300	0.500000	0.823800
Al6281	Al628	0.841400	0.500000	0.879600
P6271	P627	0.722200	0.500000	0.822300
P6281	P628	0.655500	0.500000	0.890000
O27891	O2789	0.751800	0.500000	0.821100
O27901	O2790	0.709000	0.500000	0.794100
O27911	O2791	0.628100	0.500000	0.874400
O27921	O2792	0.649100	0.500000	0.920200
Al6291	Al629	0.283300	0.000000	0.823800
Al6301	Al630	0.341400	0.000000	0.879600
P6291	P629	0.222200	0.000000	0.822300
P6301	P630	0.155500	0.000000	0.890000
O27931	O2793	0.251800	0.000000	0.821100
O27941	O2794	0.209000	0.000000	0.794100
O27951	O2795	0.128100	0.000000	0.874400
O27961	O2796	0.149100	0.000000	0.920200
Al6311	Al631	0.283300	0.500000	0.323800
Al6321	Al632	0.341400	0.500000	0.379600
P6311	P631	0.222200	0.500000	0.322300
P6321	P632	0.155500	0.500000	0.390000
O27971	O2797	0.251800	0.500000	0.321100
O27981	O2798	0.209000	0.500000	0.294100
O27991	O2799	0.128100	0.500000	0.374400
O28001	O2800	0.149100	0.500000	0.420200
Al6331	Al633	0.783300	0.000000	0.676200
Al6341	Al634	0.841400	0.000000	0.620400
P6331	P633	0.722200	0.000000	0.677700
P6341	P634	0.655500	0.000000	0.610000
O28011	O2801	0.751800	0.000000	0.678900
O28021	O2802	0.709000	0.000000	0.705900
O28031	O2803	0.628100	0.000000	0.625600
O28041	O2804	0.649100	0.000000	0.579800
Al6351	Al635	0.783300	0.500000	0.176200
Al6361	Al636	0.841400	0.500000	0.120400
P6351	P635	0.722200	0.500000	0.177700
P6361	P636	0.655500	0.500000	0.110000
O28051	O2805	0.751800	0.500000	0.178900
O28061	O2806	0.709000	0.500000	0.205900
O28071	O2807	0.628100	0.500000	0.125600
O28081	O2808	0.649100	0.500000	0.079800
Al6371	Al637	0.283300	0.000000	0.176200
Al6381	Al638	0.341400	0.000000	0.120400
P6371	P637	0.222200	0.000000	0.177700
P6381	P638	0.155500	0.000000	0.110000
O28091	O2809	0.251800	0.000000	0.178900
O28101	O2810	0.209000	0.000000	0.205900
O28111	O2811	0.128100	0.000000	0.125600
O28121	O2812	0.149100	0.000000	0.079800
Al6391	Al639	0.283300	0.500000	0.676200
Al6401	Al640	0.341400	0.500000	0.620400
P6391	P639	0.222200	0.500000	0.677700
P6401	P640	0.155500	0.500000	0.610000
O28131	O2813	0.251800	0.500000	0.678900
O28141	O2814	0.209000	0.500000	0.705900
O28151	O2815	0.128100	0.500000	0.625600
O28161	O2816	0.149100	0.500000	0.579800
Al6411	Al641	0.323800	0.216700	0.000000
Al6421	Al642	0.379600	0.158600	0.000000
P6411	P641	0.322300	0.277800	0.000000
P6421	P642	0.390000	0.344500	0.000000
O28171	O2817	0.321100	0.248200	0.000000
O28181	O2818	0.294100	0.291000	0.000000
O28191	O2819	0.374400	0.371900	0.000000
O28201	O2820	0.420200	0.350900	0.000000
Al6431	Al643	0.323800	0.716700	0.500000
Al6441	Al644	0.379600	0.658600	0.500000
P6431	P643	0.322300	0.777800	0.500000
P6441	P644	0.390000	0.844500	0.500000
O28211	O2821	0.321100	0.748200	0.500000
O28221	O2822	0.294100	0.791000	0.500000
O28231	O2823	0.374400	0.871900	0.500000
O28241	O2824	0.420200	0.850900	0.500000
Al6451	Al645	0.823800	0.216700	0.500000
Al6461	Al646	0.879600	0.158600	0.500000
P6451	P645	0.822300	0.277800	0.500000
P6461	P646	0.890000	0.344500	0.500000
O28251	O2825	0.821100	0.248200	0.500000
O28261	O2826	0.794100	0.291000	0.500000
O28271	O2827	0.874400	0.371900	0.500000
O28281	O2828	0.920200	0.350900	0.500000
Al6471	Al647	0.823800	0.716700	0.000000
Al6481	Al648	0.879600	0.658600	0.000000
P6471	P647	0.822300	0.777800	0.000000
P6481	P648	0.890000	0.844500	0.000000
O28291	O2829	0.821100	0.748200	0.000000
O28301	O2830	0.794100	0.791000	0.000000
O28311	O2831	0.874400	0.871900	0.000000
O28321	O2832	0.920200	0.850900	0.000000
Al6491	Al649	0.676200	0.216700	0.000000
Al6501	Al650	0.620400	0.158600	0.000000
P6491	P649	0.677700	0.277800	0.000000
P6501	P650	0.610000	0.344500	0.000000
O28331	O2833	0.678900	0.248200	0.000000
O28341	O2834	0.705900	0.291000	0.000000
O28351	O2835	0.625600	0.371900	0.000000
O28361	O2836	0.579800	0.350900	0.000000
Al6511	Al651	0.676200	0.716700	0.500000
Al6521	Al652	0.620400	0.658600	0.500000
P6511	P651	0.677700	0.777800	0.500000
P6521	P652	0.610000	0.844500	0.500000
O28371	O2837	0.678900	0.748200	0.500000
O28381	O2838	0.705900	0.791000	0.500000
O28391	O2839	0.625600	0.871900	0.500000
O28401	O2840	0.579800	0.850900	0.500000
Al6531	Al653	0.176200	0.216700	0.500000
Al6541	Al654	0.120400	0.158600	0.500000
P6531	P653	0.177700	0.277800	0.500000
P6541	P654	0.110000	0.344500	0.500000
O28411	O2841	0.178900	0.248200	0.500000
O28421	O2842	0.205900	0.291000	0.500000
O28431	O2843	0.125600	0.371900	0.500000
O28441	O2844	0.079800	0.350900	0.500000
Al6551	Al655	0.176200	0.716700	0.000000
Al6561	Al656	0.120400	0.658600	0.000000
P6551	P655	0.177700	0.777800	0.000000
P6561	P656	0.110000	0.844500	0.000000
O28451	O2845	0.178900	0.748200	0.000000
O28461	O2846	0.205900	0.791000	0.000000
O28471	O2847	0.125600	0.871900	0.000000
O28481	O2848	0.079800	0.850900	0.000000
Al6571	Al657	0.323800	0.783300	0.000000
Al6581	Al658	0.379600	0.841400	0.000000
P6571	P657	0.322300	0.722200	0.000000
P6581	P658	0.390000	0.655500	0.000000
O28491	O2849	0.321100	0.751800	0.000000
O28501	O2850	0.294100	0.709000	0.000000
O28511	O2851	0.374400	0.628100	0.000000
O28521	O2852	0.420200	0.649100	0.000000
Al6591	Al659	0.323800	0.283300	0.500000
Al6601	Al660	0.379600	0.341400	0.500000
P6591	P659	0.322300	0.222200	0.500000
P6601	P660	0.390000	0.155500	0.500000
O28531	O2853	0.321100	0.251800	0.500000
O28541	O2854	0.294100	0.209000	0.500000
O28551	O2855	0.374400	0.128100	0.500000
O28561	O2856	0.420200	0.149100	0.500000
Al6611	Al661	0.823800	0.783300	0.500000
Al6621	Al662	0.879600	0.841400	0.500000
P6611	P661	0.822300	0.722200	0.500000
P6621	P662	0.890000	0.655500	0.500000
O28571	O2857	0.821100	0.751800	0.500000
O28581	O2858	0.794100	0.709000	0.500000
O28591	O2859	0.874400	0.628100	0.500000
O28601	O2860	0.920200	0.649100	0.500000
Al6631	Al663	0.823800	0.283300	0.000000
Al6641	Al664	0.879600	0.341400	0.000000
P6631	P663	0.822300	0.222200	0.000000
P6641	P664	0.890000	0.155500	0.000000
O28611	O2861	0.821100	0.251800	0.000000
O28621	O2862	0.794100	0.209000	0.000000
O28631	O2863	0.874400	0.128100	0.000000
O28641	O2864	0.920200	0.149100	0.000000
Al6651	Al665	0.676200	0.783300	0.000000
Al6661	Al666	0.620400	0.841400	0.000000
P6651	P665	0.677700	0.722200	0.000000
P6661	P666	0.610000	0.655500	0.000000
O28651	O2865	0.678900	0.751800	0.000000
O28661	O2866	0.705900	0.709000	0.000000
O28671	O2867	0.625600	0.628100	0.000000
O28681	O2868	0.579800	0.649100	0.000000
Al6671	Al667	0.676200	0.283300	0.500000
Al6681	Al668	0.620400	0.341400	0.500000
P6671	P667	0.677700	0.222200	0.500000
P6681	P668	0.610000	0.155500	0.500000
O28691	O2869	0.678900	0.251800	0.500000
O28701	O2870	0.705900	0.209000	0.500000
O28711	O2871	0.625600	0.128100	0.500000
O28721	O2872	0.579800	0.149100	0.500000
Al6691	Al669	0.176200	0.783300	0.500000
Al6701	Al670	0.120400	0.841400	0.500000
P6691	P669	0.177700	0.722200	0.500000
P6701	P670	0.110000	0.655500	0.500000
O28731	O2873	0.178900	0.751800	0.500000
O28741	O2874	0.205900	0.709000	0.500000
O28751	O2875	0.125600	0.628100	0.500000
O28761	O2876	0.079800	0.649100	0.500000
Al6711	Al671	0.176200	0.283300	0.000000
Al6721	Al672	0.120400	0.341400	0.000000
P6711	P671	0.177700	0.222200	0.000000
P6721	P672	0.110000	0.155500	0.000000
O28771	O2877	0.178900	0.251800	0.000000
O28781	O2878	0.205900	0.209000	0.000000
O28791	O2879	0.125600	0.128100	0.000000
O28801	O2880	0.079800	0.149100	0.000000
Al6731	Al673	0.823800	0.500000	0.283300
Al6741	Al674	0.879600	0.500000	0.341400
P6731	P673	0.822300	0.500000	0.222200
P6741	P674	0.890000	0.500000	0.155500
O28811	O2881	0.821100	0.500000	0.251800
O28821	O2882	0.794100	0.500000	0.209000
O28831	O2883	0.874400	0.500000	0.128100
O28841	O2884	0.920200	0.500000	0.149100
Al6751	Al675	0.823800	0.000000	0.783300
Al6761	Al676	0.879600	0.000000	0.841400
P6751	P675	0.822300	0.000000	0.722200
P6761	P676	0.890000	0.000000	0.655500
O28851	O2885	0.821100	0.000000	0.751800
O28861	O2886	0.794100	0.000000	0.709000
O28871	O2887	0.874400	0.000000	0.628100
O28881	O2888	0.920200	0.000000	0.649100
Al6771	Al677	0.323800	0.500000	0.783300
Al6781	Al678	0.379600	0.500000	0.841400
P6771	P677	0.322300	0.500000	0.722200
P6781	P678	0.390000	0.500000	0.655500
O28891	O2889	0.321100	0.500000	0.751800
O28901	O2890	0.294100	0.500000	0.709000
O28911	O2891	0.374400	0.500000	0.628100
O28921	O2892	0.420200	0.500000	0.649100
Al6791	Al679	0.323800	0.000000	0.283300
Al6801	Al680	0.379600	0.000000	0.341400
P6791	P679	0.322300	0.000000	0.222200
P6801	P680	0.390000	0.000000	0.155500
O28931	O2893	0.321100	0.000000	0.251800
O28941	O2894	0.294100	0.000000	0.209000
O28951	O2895	0.374400	0.000000	0.128100
O28961	O2896	0.420200	0.000000	0.149100
Al6811	Al681	0.176200	0.500000	0.283300
Al6821	Al682	0.120400	0.500000	0.341400
P6811	P681	0.177700	0.500000	0.222200
P6821	P682	0.110000	0.500000	0.155500
O28971	O2897	0.178900	0.500000	0.251800
O28981	O2898	0.205900	0.500000	0.209000
O28991	O2899	0.125600	0.500000	0.128100
O29001	O2900	0.079800	0.500000	0.149100
Al6831	Al683	0.176200	0.000000	0.783300
Al6841	Al684	0.120400	0.000000	0.841400
P6831	P683	0.177700	0.000000	0.722200
P6841	P684	0.110000	0.000000	0.655500
O29011	O2901	0.178900	0.000000	0.751800
O29021	O2902	0.205900	0.000000	0.709000
O29031	O2903	0.125600	0.000000	0.628100
O29041	O2904	0.079800	0.000000	0.649100
Al6851	Al685	0.676200	0.500000	0.783300
Al6861	Al686	0.620400	0.500000	0.841400
P6851	P685	0.677700	0.500000	0.722200
P6861	P686	0.610000	0.500000	0.655500
O29051	O2905	0.678900	0.500000	0.751800
O29061	O2906	0.705900	0.500000	0.709000
O29071	O2907	0.625600	0.500000	0.628100
O29081	O2908	0.579800	0.500000	0.649100
Al6871	Al687	0.676200	0.000000	0.283300
Al6881	Al688	0.620400	0.000000	0.341400
P6871	P687	0.677700	0.000000	0.222200
P6881	P688	0.610000	0.000000	0.155500
O29091	O2909	0.678900	0.000000	0.251800
O29101	O2910	0.705900	0.000000	0.209000
O29111	O2911	0.625600	0.000000	0.128100
O29121	O2912	0.579800	0.000000	0.149100
Al6891	Al689	0.823800	0.500000	0.716700
Al6901	Al690	0.879600	0.500000	0.658600
P6891	P689	0.822300	0.500000	0.777800
P6901	P690	0.890000	0.500000	0.844500
O29131	O2913	0.821100	0.500000	0.748200
O29141	O2914	0.794100	0.500000	0.791000
O29151	O2915	0.874400	0.500000	0.871900
O29161	O2916	0.920200	0.500000	0.850900
Al6911	Al691	0.823800	0.000000	0.216700
Al6921	Al692	0.879600	0.000000	0.158600
P6911	P691	0.822300	0.000000	0.277800
P6921	P692	0.890000	0.000000	0.344500
O29171	O2917	0.821100	0.000000	0.248200
O29181	O2918	0.794100	0.000000	0.291000
O29191	O2919	0.874400	0.000000	0.371900
O29201	O2920	0.920200	0.000000	0.350900
Al6931	Al693	0.323800	0.500000	0.216700
Al6941	Al694	0.379600	0.500000	0.158600
P6931	P693	0.322300	0.500000	0.277800
P6941	P694	0.390000	0.500000	0.344500
O29211	O2921	0.321100	0.500000	0.248200
O29221	O2922	0.294100	0.500000	0.291000
O29231	O2923	0.374400	0.500000	0.371900
O29241	O2924	0.420200	0.500000	0.350900
Al6951	Al695	0.323800	0.000000	0.716700
Al6961	Al696	0.379600	0.000000	0.658600
P6951	P695	0.322300	0.000000	0.777800
P6961	P696	0.390000	0.000000	0.844500
O29251	O2925	0.321100	0.000000	0.748200
O29261	O2926	0.294100	0.000000	0.791000
O29271	O2927	0.374400	0.000000	0.871900
O29281	O2928	0.420200	0.000000	0.850900
Al6971	Al697	0.176200	0.500000	0.716700
Al6981	Al698	0.120400	0.500000	0.658600
P6971	P697	0.177700	0.500000	0.777800
P6981	P698	0.110000	0.500000	0.844500
O29291	O2929	0.178900	0.500000	0.748200
O29301	O2930	0.205900	0.500000	0.791000
O29311	O2931	0.125600	0.500000	0.871900
O29321	O2932	0.079800	0.500000	0.850900
Al6991	Al699	0.176200	0.000000	0.216700
Al7001	Al700	0.120400	0.000000	0.158600
P6991	P699	0.177700	0.000000	0.277800
P7001	P700	0.110000	0.000000	0.344500
O29331	O2933	0.178900	0.000000	0.248200
O29341	O2934	0.205900	0.000000	0.291000
O29351	O2935	0.125600	0.000000	0.371900
O29361	O2936	0.079800	0.000000	0.350900
Al7011	Al701	0.676200	0.500000	0.216700
Al7021	Al702	0.620400	0.500000	0.158600
P7011	P701	0.677700	0.500000	0.277800
P7021	P702	0.610000	0.500000	0.344500
O29371	O2937	0.678900	0.500000	0.248200
O29381	O2938	0.705900	0.500000	0.291000
O29391	O2939	0.625600	0.500000	0.371900
O29401	O2940	0.579800	0.500000	0.350900
Al7031	Al703	0.676200	0.000000	0.716700
Al7041	Al704	0.620400	0.000000	0.658600
P7031	P703	0.677700	0.000000	0.777800
P7041	P704	0.610000	0.000000	0.844500
O29411	O2941	0.678900	0.000000	0.748200
O29421	O2942	0.705900	0.000000	0.791000
O29431	O2943	0.625600	0.000000	0.871900
O29441	O2944	0.579800	0.000000	0.850900
Al7051	Al705	0.500000	0.716700	0.176200
Al7061	Al706	0.500000	0.658600	0.120400
P7051	P705	0.500000	0.777800	0.177700
P7061	P706	0.500000	0.844500	0.110000
O29451	O2945	0.500000	0.748200	0.178900
O29461	O2946	0.500000	0.791000	0.205900
O29471	O2947	0.500000	0.871900	0.125600
O29481	O2948	0.500000	0.850900	0.079800
Al7071	Al707	0.500000	0.216700	0.676200
Al7081	Al708	0.500000	0.158600	0.620400
P7071	P707	0.500000	0.277800	0.677700
P7081	P708	0.500000	0.344500	0.610000
O29491	O2949	0.500000	0.248200	0.678900
O29501	O2950	0.500000	0.291000	0.705900
O29511	O2951	0.500000	0.371900	0.625600
O29521	O2952	0.500000	0.350900	0.579800
Al7091	Al709	0.000000	0.716700	0.676200
Al7101	Al710	0.000000	0.658600	0.620400
P7091	P709	0.000000	0.777800	0.677700
P7101	P710	0.000000	0.844500	0.610000
O29531	O2953	0.000000	0.748200	0.678900
O29541	O2954	0.000000	0.791000	0.705900
O29551	O2955	0.000000	0.871900	0.625600
O29561	O2956	0.000000	0.850900	0.579800
Al7111	Al711	0.000000	0.216700	0.176200
Al7121	Al712	0.000000	0.158600	0.120400
P7111	P711	0.000000	0.277800	0.177700
P7121	P712	0.000000	0.344500	0.110000
O29571	O2957	0.000000	0.248200	0.178900
O29581	O2958	0.000000	0.291000	0.205900
O29591	O2959	0.000000	0.371900	0.125600
O29601	O2960	0.000000	0.350900	0.079800
Al7131	Al713	0.500000	0.716700	0.823800
Al7141	Al714	0.500000	0.658600	0.879600
P7131	P713	0.500000	0.777800	0.822300
P7141	P714	0.500000	0.844500	0.890000
O29611	O2961	0.500000	0.748200	0.821100
O29621	O2962	0.500000	0.791000	0.794100
O29631	O2963	0.500000	0.871900	0.874400
O29641	O2964	0.500000	0.850900	0.920200
Al7151	Al715	0.500000	0.216700	0.323800
Al7161	Al716	0.500000	0.158600	0.379600
P7151	P715	0.500000	0.277800	0.322300
P7161	P716	0.500000	0.344500	0.390000
O29651	O2965	0.500000	0.248200	0.321100
O29661	O2966	0.500000	0.291000	0.294100
O29671	O2967	0.500000	0.371900	0.374400
O29681	O2968	0.500000	0.350900	0.420200
Al7171	Al717	0.000000	0.716700	0.323800
Al7181	Al718	0.000000	0.658600	0.379600
P7171	P717	0.000000	0.777800	0.322300
P7181	P718	0.000000	0.844500	0.390000
O29691	O2969	0.000000	0.748200	0.321100
O29701	O2970	0.000000	0.791000	0.294100
O29711	O2971	0.000000	0.871900	0.374400
O29721	O2972	0.000000	0.850900	0.420200
Al7191	Al719	0.000000	0.216700	0.823800
Al7201	Al720	0.000000	0.158600	0.879600
P7191	P719	0.000000	0.277800	0.822300
P7201	P720	0.000000	0.344500	0.890000
O29731	O2973	0.000000	0.248200	0.821100
O29741	O2974	0.000000	0.291000	0.794100
O29751	O2975	0.000000	0.371900	0.874400
O29761	O2976	0.000000	0.350900	0.920200
Al7211	Al721	0.500000	0.283300	0.176200
Al7221	Al722	0.500000	0.341400	0.120400
P7211	P721	0.500000	0.222200	0.177700
P7221	P722	0.500000	0.155500	0.110000
O29771	O2977	0.500000	0.251800	0.178900
O29781	O2978	0.500000	0.209000	0.205900
O29791	O2979	0.500000	0.128100	0.125600
O29801	O2980	0.500000	0.149100	0.079800
Al7231	Al723	0.500000	0.783300	0.676200
Al7241	Al724	0.500000	0.841400	0.620400
P7231	P723	0.500000	0.722200	0.677700
P7241	P724	0.500000	0.655500	0.610000
O29811	O2981	0.500000	0.751800	0.678900
O29821	O2982	0.500000	0.709000	0.705900
O29831	O2983	0.500000	0.628100	0.625600
O29841	O2984	0.500000	0.649100	0.579800
Al7251	Al725	0.000000	0.283300	0.676200
Al7261	Al726	0.000000	0.341400	0.620400
P7251	P725	0.000000	0.222200	0.677700
P7261	P726	0.000000	0.155500	0.610000
O29851	O2985	0.000000	0.251800	0.678900
O29861	O2986	0.000000	0.209000	0.705900
O29871	O2987	0.000000	0.128100	0.625600
O29881	O2988	0.000000	0.149100	0.579800
Al7271	Al727	0.000000	0.783300	0.176200
Al7281	Al728	0.000000	0.841400	0.120400
P7271	P727	0.000000	0.722200	0.177700
P7281	P728	0.000000	0.655500	0.110000
O29891	O2989	0.000000	0.751800	0.178900
O29901	O2990	0.000000	0.709000	0.205900
O29911	O2991	0.000000	0.628100	0.125600
O29921	O2992	0.000000	0.649100	0.079800
Al7291	Al729	0.500000	0.283300	0.823800
Al7301	Al730	0.500000	0.341400	0.879600
P7291	P729	0.500000	0.222200	0.822300
P7301	P730	0.500000	0.155500	0.890000
O29931	O2993	0.500000	0.251800	0.821100
O29941	O2994	0.500000	0.209000	0.794100
O29951	O2995	0.500000	0.128100	0.874400
O29961	O2996	0.500000	0.149100	0.920200
Al7311	Al731	0.500000	0.783300	0.323800
Al7321	Al732	0.500000	0.841400	0.379600
P7311	P731	0.500000	0.722200	0.322300
P7321	P732	0.500000	0.655500	0.390000
O29971	O2997	0.500000	0.751800	0.321100
O29981	O2998	0.500000	0.709000	0.294100
O29991	O2999	0.500000	0.628100	0.374400
O30001	O3000	0.500000	0.649100	0.420200
Al7331	Al733	0.000000	0.283300	0.323800
Al7341	Al734	0.000000	0.341400	0.379600
P7331	P733	0.000000	0.222200	0.322300
P7341	P734	0.000000	0.155500	0.390000
O30011	O3001	0.000000	0.251800	0.321100
O30021	O3002	0.000000	0.209000	0.294100
O30031	O3003	0.000000	0.128100	0.374400
O30041	O3004	0.000000	0.149100	0.420200
Al7351	Al735	0.000000	0.783300	0.823800
Al7361	Al736	0.000000	0.841400	0.879600
P7351	P735	0.000000	0.722200	0.822300
P7361	P736	0.000000	0.655500	0.890000
O30051	O3005	0.000000	0.751800	0.821100
O30061	O3006	0.000000	0.709000	0.794100
O30071	O3007	0.000000	0.628100	0.874400
O30081	O3008	0.000000	0.649100	0.920200
Al7371	Al737	0.716700	0.823800	0.500000
Al7381	Al738	0.658600	0.879600	0.500000
P7371	P737	0.777800	0.822300	0.500000
P7381	P738	0.844500	0.890000	0.500000
O30091	O3009	0.748200	0.821100	0.500000
O30101	O3010	0.791000	0.794100	0.500000
O30111	O3011	0.871900	0.874400	0.500000
O30121	O3012	0.850900	0.920200	0.500000
Al7391	Al739	0.716700	0.323800	0.000000
Al7401	Al740	0.658600	0.379600	0.000000
P7391	P739	0.777800	0.322300	0.000000
P7401	P740	0.844500	0.390000	0.000000
O30131	O3013	0.748200	0.321100	0.000000
O30141	O3014	0.791000	0.294100	0.000000
O30151	O3015	0.871900	0.374400	0.000000
O30161	O3016	0.850900	0.420200	0.000000
Al7411	Al741	0.216700	0.823800	0.000000
Al7421	Al742	0.158600	0.879600	0.000000
P7411	P741	0.277800	0.822300	0.000000
P7421	P742	0.344500	0.890000	0.000000
O30171	O3017	0.248200	0.821100	0.000000
O30181	O3018	0.291000	0.794100	0.000000
O30191	O3019	0.371900	0.874400	0.000000
O30201	O3020	0.350900	0.920200	0.000000
Al7431	Al743	0.216700	0.323800	0.500000
Al7441	Al744	0.158600	0.379600	0.500000
P7431	P743	0.277800	0.322300	0.500000
P7441	P744	0.344500	0.390000	0.500000
O30211	O3021	0.248200	0.321100	0.500000
O30221	O3022	0.291000	0.294100	0.500000
O30231	O3023	0.371900	0.374400	0.500000
O30241	O3024	0.350900	0.420200	0.500000
Al7451	Al745	0.716700	0.176200	0.500000
Al7461	Al746	0.658600	0.120400	0.500000
P7451	P745	0.777800	0.177700	0.500000
P7461	P746	0.844500	0.110000	0.500000
O30251	O3025	0.748200	0.178900	0.500000
O30261	O3026	0.791000	0.205900	0.500000
O30271	O3027	0.871900	0.125600	0.500000
O30281	O3028	0.850900	0.079800	0.500000
Al7471	Al747	0.716700	0.676200	0.000000
Al7481	Al748	0.658600	0.620400	0.000000
P7471	P747	0.777800	0.677700	0.000000
P7481	P748	0.844500	0.610000	0.000000
O30291	O3029	0.748200	0.678900	0.000000
O30301	O3030	0.791000	0.705900	0.000000
O30311	O3031	0.871900	0.625600	0.000000
O30321	O3032	0.850900	0.579800	0.000000
Al7491	Al749	0.216700	0.176200	0.000000
Al7501	Al750	0.158600	0.120400	0.000000
P7491	P749	0.277800	0.177700	0.000000
P7501	P750	0.344500	0.110000	0.000000
O30331	O3033	0.248200	0.178900	0.000000
O30341	O3034	0.291000	0.205900	0.000000
O30351	O3035	0.371900	0.125600	0.000000
O30361	O3036	0.350900	0.079800	0.000000
Al7511	Al751	0.216700	0.676200	0.500000
Al7521	Al752	0.158600	0.620400	0.500000
P7511	P751	0.277800	0.677700	0.500000
P7521	P752	0.344500	0.610000	0.500000
O30371	O3037	0.248200	0.678900	0.500000
O30381	O3038	0.291000	0.705900	0.500000
O30391	O3039	0.371900	0.625600	0.500000
O30401	O3040	0.350900	0.579800	0.500000
Al7531	Al753	0.283300	0.823800	0.500000
Al7541	Al754	0.341400	0.879600	0.500000
P7531	P753	0.222200	0.822300	0.500000
P7541	P754	0.155500	0.890000	0.500000
O30411	O3041	0.251800	0.821100	0.500000
O30421	O3042	0.209000	0.794100	0.500000
O30431	O3043	0.128100	0.874400	0.500000
O30441	O3044	0.149100	0.920200	0.500000
Al7551	Al755	0.283300	0.323800	0.000000
Al7561	Al756	0.341400	0.379600	0.000000
P7551	P755	0.222200	0.322300	0.000000
P7561	P756	0.155500	0.390000	0.000000
O30451	O3045	0.251800	0.321100	0.000000
O30461	O3046	0.209000	0.294100	0.000000
O30471	O3047	0.128100	0.374400	0.000000
O30481	O3048	0.149100	0.420200	0.000000
Al7571	Al757	0.783300	0.823800	0.000000
Al7581	Al758	0.841400	0.879600	0.000000
P7571	P757	0.722200	0.822300	0.000000
P7581	P758	0.655500	0.890000	0.000000
O30491	O3049	0.751800	0.821100	0.000000
O30501	O3050	0.709000	0.794100	0.000000
O30511	O3051	0.628100	0.874400	0.000000
O30521	O3052	0.649100	0.920200	0.000000
Al7591	Al759	0.783300	0.323800	0.500000
Al7601	Al760	0.841400	0.379600	0.500000
P7591	P759	0.722200	0.322300	0.500000
P7601	P760	0.655500	0.390000	0.500000
O30531	O3053	0.751800	0.321100	0.500000
O30541	O3054	0.709000	0.294100	0.500000
O30551	O3055	0.628100	0.374400	0.500000
O30561	O3056	0.649100	0.420200	0.500000
Al7611	Al761	0.283300	0.176200	0.500000
Al7621	Al762	0.341400	0.120400	0.500000
P7611	P761	0.222200	0.177700	0.500000
P7621	P762	0.155500	0.110000	0.500000
O30571	O3057	0.251800	0.178900	0.500000
O30581	O3058	0.209000	0.205900	0.500000
O30591	O3059	0.128100	0.125600	0.500000
O30601	O3060	0.149100	0.079800	0.500000
Al7631	Al763	0.283300	0.676200	0.000000
Al7641	Al764	0.341400	0.620400	0.000000
P7631	P763	0.222200	0.677700	0.000000
P7641	P764	0.155500	0.610000	0.000000
O30611	O3061	0.251800	0.678900	0.000000
O30621	O3062	0.209000	0.705900	0.000000
O30631	O3063	0.128100	0.625600	0.000000
O30641	O3064	0.149100	0.579800	0.000000
Al7651	Al765	0.783300	0.176200	0.000000
Al7661	Al766	0.841400	0.120400	0.000000
P7651	P765	0.722200	0.177700	0.000000
P7661	P766	0.655500	0.110000	0.000000
O30651	O3065	0.751800	0.178900	0.000000
O30661	O3066	0.709000	0.205900	0.000000
O30671	O3067	0.628100	0.125600	0.000000
O30681	O3068	0.649100	0.079800	0.000000
Al7671	Al767	0.783300	0.676200	0.500000
Al7681	Al768	0.841400	0.620400	0.500000
P7671	P767	0.722200	0.677700	0.500000
P7681	P768	0.655500	0.610000	0.500000
O30691	O3069	0.751800	0.678900	0.500000
O30701	O3070	0.709000	0.705900	0.500000
O30711	O3071	0.628100	0.625600	0.500000
O30721	O3072	0.649100	0.579800	0.500000
