data_ZEBMAW_clean_PM
_symmetry_space_group_name_H-M	'P1'
_cell_length_a	14.534500
_cell_length_b	14.534500
_cell_length_c	21.935600
_cell_angle_alpha	82.263600
_cell_angle_beta	82.263600
_cell_angle_gamma	66.647700
_symmetry_Int_Tables_number 1

loop_
_symmetry_equiv_pos_as_xyz
'x,y,z'

loop_
_atom_site_label
_atom_site_type_symbol
_atom_site_fract_x
_atom_site_fract_y
_atom_site_fract_z
Ce11	Ce1	0.532070	0.951850	0.595730
Ce21	Ce2	0.048150	0.467930	0.904270
Ce31	Ce3	0.467930	0.048150	0.404270
Ce41	Ce4	0.951850	0.532070	0.095730
Si11	Si1	0.889300	0.349320	0.506090
Si21	Si2	0.650680	0.110700	0.993910
Si31	Si3	0.110700	0.650680	0.493910
Si41	Si4	0.349320	0.889300	0.006090
H11	H1	0.743000	0.706200	0.538500
H21	H2	0.819300	0.568900	0.481700
H31	H3	0.825700	0.386900	0.635000
H41	H4	0.754000	0.522400	0.691400
H51	H5	0.680300	0.376700	0.504900
H61	H6	0.584400	0.282200	0.532100
H71	H7	0.826700	0.047500	0.587700
H81	H8	0.923800	0.142200	0.557800
H91	H9	0.015400	0.491800	0.317500
H101	H10	0.003200	0.442600	0.421300
H111	H11	0.791600	0.343000	0.396200
H121	H12	0.808100	0.388100	0.291600
H131	H13	0.027400	0.340000	0.598400
H141	H14	0.190600	0.240000	0.618100
H151	H15	0.218800	0.088800	0.471900
H161	H16	0.054700	0.184500	0.455300
H171	H17	0.704600	0.644800	0.725500
H181	H18	0.293800	0.257000	0.961500
H191	H19	0.431100	0.180700	0.018300
H201	H20	0.613100	0.174300	0.865000
H211	H21	0.477600	0.246000	0.808600
H221	H22	0.623300	0.319700	0.995100
H231	H23	0.717800	0.415600	0.967900
H241	H24	0.952500	0.173300	0.912300
H251	H25	0.857800	0.076200	0.942200
H261	H26	0.508200	0.984600	0.182500
H271	H27	0.557400	0.996800	0.078700
H281	H28	0.657000	0.208400	0.103800
H291	H29	0.611900	0.191900	0.208400
H301	H30	0.660000	0.972600	0.901600
H311	H31	0.760000	0.809400	0.881900
H321	H32	0.911200	0.781200	0.028100
H331	H33	0.815500	0.945300	0.044700
H341	H34	0.355200	0.295400	0.774500
H351	H35	0.257000	0.293800	0.461500
H361	H36	0.180700	0.431100	0.518300
H371	H37	0.174300	0.613100	0.365000
H381	H38	0.246000	0.477600	0.308600
H391	H39	0.319700	0.623300	0.495100
H401	H40	0.415600	0.717800	0.467900
H411	H41	0.173300	0.952500	0.412300
H421	H42	0.076200	0.857800	0.442200
H431	H43	0.984600	0.508200	0.682500
H441	H44	0.996800	0.557400	0.578700
H451	H45	0.208400	0.657000	0.603800
H461	H46	0.191900	0.611900	0.708400
H471	H47	0.972600	0.660000	0.401600
H481	H48	0.809400	0.760000	0.381900
H491	H49	0.781200	0.911200	0.528100
H501	H50	0.945300	0.815500	0.544700
H511	H51	0.295400	0.355200	0.274500
H521	H52	0.706200	0.743000	0.038500
H531	H53	0.568900	0.819300	0.981700
H541	H54	0.386900	0.825700	0.135000
H551	H55	0.522400	0.754000	0.191400
H561	H56	0.376700	0.680300	0.004900
H571	H57	0.282200	0.584400	0.032100
H581	H58	0.047500	0.826700	0.087700
H591	H59	0.142200	0.923800	0.057800
H601	H60	0.491800	0.015400	0.817500
H611	H61	0.442600	0.003200	0.921300
H621	H62	0.343000	0.791600	0.896200
H631	H63	0.388100	0.808100	0.791600
H641	H64	0.340000	0.027400	0.098400
H651	H65	0.240000	0.190600	0.118100
H661	H66	0.088800	0.218800	0.971900
H671	H67	0.184500	0.054700	0.955300
H681	H68	0.644800	0.704600	0.225500
C11	C1	0.693230	0.717630	0.658640
C21	C2	0.738790	0.628590	0.621030
C31	C3	0.759580	0.641580	0.558230
C41	C4	0.805150	0.558750	0.524060
C51	C5	0.830110	0.461910	0.551180
C61	C6	0.809400	0.451200	0.614880
C71	C7	0.765700	0.532500	0.648770
C81	C8	0.813910	0.269310	0.527540
C91	C9	0.710550	0.310150	0.520920
C101	C10	0.652720	0.253920	0.537620
C111	C11	0.695820	0.155020	0.562740
C121	C12	0.634040	0.092440	0.580290
C131	C13	0.797170	0.113570	0.570570
C141	C14	0.855310	0.170910	0.552700
C151	C15	0.328750	0.091350	0.559130
C161	C16	0.927390	0.470790	0.225560
C171	C17	0.914280	0.442880	0.293270
C181	C18	0.971200	0.460600	0.333150
C191	C19	0.962760	0.432360	0.395600
C201	C20	0.894480	0.388680	0.421000
C211	C21	0.837230	0.372430	0.380680
C221	C22	0.847240	0.399440	0.317620
C231	C23	0.022240	0.273640	0.524290
C241	C24	0.065380	0.288980	0.573160
C251	C25	0.163670	0.229670	0.584720
C261	C26	0.222390	0.154590	0.546640
C271	C27	0.180340	0.138740	0.497730
C281	C28	0.082090	0.196890	0.487660
C291	C29	0.282370	0.306770	0.841360
C301	C30	0.371410	0.261210	0.878970
C311	C31	0.358420	0.240420	0.941770
C321	C32	0.441250	0.194850	0.975940
C331	C33	0.538090	0.169890	0.948820
C341	C34	0.548800	0.190600	0.885120
C351	C35	0.467500	0.234300	0.851230
C361	C36	0.730690	0.186090	0.972460
C371	C37	0.689850	0.289450	0.979080
C381	C38	0.746080	0.347280	0.962380
C391	C39	0.844980	0.304180	0.937260
C401	C40	0.907560	0.365960	0.919710
C411	C41	0.886430	0.202830	0.929430
C421	C42	0.829090	0.144690	0.947300
C431	C43	0.908650	0.671250	0.940870
C441	C44	0.529210	0.072610	0.274440
C451	C45	0.557120	0.085720	0.206730
C461	C46	0.539400	0.028800	0.166850
C471	C47	0.567640	0.037240	0.104400
C481	C48	0.611320	0.105520	0.079000
C491	C49	0.627570	0.162770	0.119320
C501	C50	0.600560	0.152760	0.182380
C511	C51	0.726360	0.977760	0.975710
C521	C52	0.711020	0.934620	0.926840
C531	C53	0.770330	0.836330	0.915280
C541	C54	0.845410	0.777610	0.953360
C551	C55	0.861260	0.819660	0.002270
C561	C56	0.803110	0.917910	0.012340
C571	C57	0.306770	0.282370	0.341360
C581	C58	0.261210	0.371410	0.378970
C591	C59	0.240420	0.358420	0.441770
C601	C60	0.194850	0.441250	0.475940
C611	C61	0.169890	0.538090	0.448820
C621	C62	0.190600	0.548800	0.385120
C631	C63	0.234300	0.467500	0.351230
C641	C64	0.186090	0.730690	0.472460
C651	C65	0.289450	0.689850	0.479080
C661	C66	0.347280	0.746080	0.462380
C671	C67	0.304180	0.844980	0.437260
C681	C68	0.365960	0.907560	0.419710
C691	C69	0.202830	0.886430	0.429430
C701	C70	0.144690	0.829090	0.447300
C711	C71	0.671250	0.908650	0.440870
C721	C72	0.072610	0.529210	0.774440
C731	C73	0.085720	0.557120	0.706730
C741	C74	0.028800	0.539400	0.666850
C751	C75	0.037240	0.567640	0.604400
C761	C76	0.105520	0.611320	0.579000
C771	C77	0.162770	0.627570	0.619320
C781	C78	0.152760	0.600560	0.682380
C791	C79	0.977760	0.726360	0.475710
C801	C80	0.934620	0.711020	0.426840
C811	C81	0.836330	0.770330	0.415280
C821	C82	0.777610	0.845410	0.453360
C831	C83	0.819660	0.861260	0.502270
C841	C84	0.917910	0.803110	0.512340
C851	C85	0.717630	0.693230	0.158640
C861	C86	0.628590	0.738790	0.121030
C871	C87	0.641580	0.759580	0.058230
C881	C88	0.558750	0.805150	0.024060
C891	C89	0.461910	0.830110	0.051180
C901	C90	0.451200	0.809400	0.114880
C911	C91	0.532500	0.765700	0.148770
C921	C92	0.269310	0.813910	0.027540
C931	C93	0.310150	0.710550	0.020920
C941	C94	0.253920	0.652720	0.037620
C951	C95	0.155020	0.695820	0.062740
C961	C96	0.092440	0.634040	0.080290
C971	C97	0.113570	0.797170	0.070570
C981	C98	0.170910	0.855310	0.052700
C991	C99	0.091350	0.328750	0.059130
C1001	C100	0.470790	0.927390	0.725560
C1011	C101	0.442880	0.914280	0.793270
C1021	C102	0.460600	0.971200	0.833150
C1031	C103	0.432360	0.962760	0.895600
C1041	C104	0.388680	0.894480	0.921000
C1051	C105	0.372430	0.837230	0.880680
C1061	C106	0.399440	0.847240	0.817620
C1071	C107	0.273640	0.022240	0.024290
C1081	C108	0.288980	0.065380	0.073160
C1091	C109	0.229670	0.163670	0.084720
C1101	C110	0.154590	0.222390	0.046640
C1111	C111	0.138740	0.180340	0.997730
C1121	C112	0.196890	0.082090	0.987660
O11	O1	0.683300	0.705100	0.714580
O21	O2	0.670260	0.804340	0.629620
O31	O3	0.673770	0.006290	0.608000
O41	O4	0.544170	0.125570	0.565800
O51	O5	0.353540	0.079260	0.612770
O61	O6	0.879910	0.449030	0.189150
O71	O7	0.986200	0.514980	0.205420
O81	O8	0.392650	0.048570	0.514930
O91	O9	0.294900	0.316700	0.785420
O101	O10	0.195660	0.329740	0.870380
O111	O11	0.993710	0.326230	0.892000
O121	O12	0.874430	0.455830	0.934200
O131	O13	0.920740	0.646460	0.887230
O141	O14	0.550970	0.120090	0.310850
O151	O15	0.485020	0.013800	0.294580
O161	O16	0.951430	0.607350	0.985070
O171	O17	0.316700	0.294900	0.285420
O181	O18	0.329740	0.195660	0.370380
O191	O19	0.326230	0.993710	0.392000
O201	O20	0.455830	0.874430	0.434200
O211	O21	0.646460	0.920740	0.387230
O221	O22	0.120090	0.550970	0.810850
O231	O23	0.013800	0.485020	0.794580
O241	O24	0.607350	0.951430	0.485070
O251	O25	0.705100	0.683300	0.214580
O261	O26	0.804340	0.670260	0.129620
O271	O27	0.006290	0.673770	0.108000
O281	O28	0.125570	0.544170	0.065800
O291	O29	0.079260	0.353540	0.112770
O301	O30	0.449030	0.879910	0.689150
O311	O31	0.514980	0.986200	0.705420
O321	O32	0.048570	0.392650	0.014930
