data_ZECKOJ_clean_PM
_symmetry_space_group_name_H-M	'P1'
_cell_length_a	13.815100
_cell_length_b	13.815100
_cell_length_c	13.815100
_cell_angle_alpha	105.335000
_cell_angle_beta	105.335000
_cell_angle_gamma	118.104000
_symmetry_Int_Tables_number 1

loop_
_symmetry_equiv_pos_as_xyz
'x,y,z'

loop_
_atom_site_label
_atom_site_type_symbol
_atom_site_fract_x
_atom_site_fract_y
_atom_site_fract_z
Cu11	Cu1	0.521170	0.620250	0.099080
Cu21	Cu2	0.521170	0.422090	0.900920
Cu31	Cu3	0.672090	0.271170	0.400920
Cu41	Cu4	0.870250	0.271170	0.599080
H11	H1	0.657700	0.592200	0.391500
H21	H2	0.511900	0.515900	0.332600
H31	H3	0.591900	0.637300	0.322600
H41	H4	0.200700	0.266200	0.608500
H51	H5	0.183300	0.179300	0.667400
H61	H6	0.314700	0.269300	0.677400
H71	H7	0.516200	0.407700	0.565500
H81	H8	0.429300	0.261900	0.496000
H91	H9	0.519300	0.341900	0.454600
H101	H10	0.842200	0.950700	0.434500
H111	H11	0.765900	0.933300	0.504000
H121	H12	0.887300	0.064700	0.545400
H131	H13	0.200700	0.592200	0.934500
H141	H14	0.183300	0.515900	0.004000
H151	H15	0.314700	0.637300	0.045400
H161	H16	0.657700	0.266200	0.065500
H171	H17	0.511900	0.179300	0.996000
H181	H18	0.591900	0.269300	0.954600
H191	H19	0.842200	0.407700	0.891500
H201	H20	0.765900	0.261900	0.832600
H211	H21	0.887300	0.341900	0.822600
H221	H22	0.516200	0.950700	0.108500
H231	H23	0.429300	0.933300	0.167400
H241	H24	0.519300	0.064700	0.177400
C11	C1	0.579800	0.491100	0.222100
C21	C2	0.585900	0.565600	0.326300
C31	C3	0.269000	0.357700	0.777900
C41	C4	0.239300	0.259600	0.673700
C51	C5	0.607700	0.329800	0.588700
C61	C6	0.509600	0.335900	0.520300
C71	C7	0.741100	0.019000	0.411300
C81	C8	0.815600	0.989300	0.479700
C91	C9	0.269000	0.491100	0.911300
C101	C10	0.239300	0.565600	0.979700
C111	C11	0.579800	0.357700	0.088700
C121	C12	0.585900	0.259600	0.020300
C131	C13	0.741100	0.329800	0.722100
C141	C14	0.815600	0.335900	0.826300
C151	C15	0.607700	0.019000	0.277900
C161	C16	0.509600	0.989300	0.173700
C171	C17	0.604300	0.399800	0.204500
C181	C18	0.634500	0.355300	0.279200
C191	C19	0.195300	0.399800	0.795500
C201	C20	0.076100	0.355300	0.720800
C211	C21	0.649800	0.354300	0.704500
C221	C22	0.605300	0.384500	0.779200
C231	C23	0.649800	0.945300	0.295500
C241	C24	0.605300	0.826100	0.220800
N11	N1	0.548900	0.502300	0.127800
N21	N2	0.374500	0.421100	0.872200
N31	N3	0.671100	0.298900	0.546600
N41	N4	0.752300	0.124500	0.453400
N51	N5	0.374500	0.502300	0.953400
N61	N6	0.548900	0.421100	0.046600
N71	N7	0.752300	0.298900	0.627800
N81	N8	0.671100	0.124500	0.372200
O11	O1	0.649600	0.399600	0.380200
O21	O2	0.019400	0.269400	0.619800
O31	O3	0.519400	0.399600	0.750000
O41	O4	0.649600	0.769400	0.250000
O51	O5	0.019400	0.399600	0.750000
O61	O6	0.649600	0.269400	0.250000
O71	O7	0.649600	0.399600	0.880200
O81	O8	0.519400	0.769400	0.119800
