data_ZECKID_clean_PM
_symmetry_space_group_name_H-M	'P1'
_cell_length_a	14.057100
_cell_length_b	14.057100
_cell_length_c	14.057100
_cell_angle_alpha	108.353000
_cell_angle_beta	110.033000
_cell_angle_gamma	110.033000
_symmetry_Int_Tables_number 1

loop_
_symmetry_equiv_pos_as_xyz
'x,y,z'

loop_
_atom_site_label
_atom_site_type_symbol
_atom_site_fract_x
_atom_site_fract_y
_atom_site_fract_z
Cu11	Cu1	0.898570	0.698840	0.800270
Cu21	Cu2	0.101430	0.901700	0.800270
Cu31	Cu3	0.601430	0.550270	0.151700
Cu41	Cu4	0.398570	0.550270	0.948840
H11	H1	0.657100	0.549400	0.586700
H21	H2	0.675700	0.464700	0.499200
H31	H3	0.599500	0.518700	0.454800
H41	H4	0.342900	0.929600	0.892300
H51	H5	0.324300	0.823500	0.789000
H61	H6	0.400500	0.855300	0.919200
H71	H7	0.537300	0.336700	0.179600
H81	H8	0.534500	0.249200	0.073500
H91	H9	0.436100	0.204800	0.105300
H101	H10	0.462700	0.642300	0.799400
H111	H11	0.465500	0.539000	0.714700
H121	H12	0.563900	0.669200	0.768700
H131	H13	0.037300	0.929600	0.586700
H141	H14	0.034500	0.823500	0.499200
H151	H15	0.936100	0.855300	0.454800
H161	H16	0.962700	0.549400	0.892300
H171	H17	0.965500	0.464700	0.789000
H181	H18	0.063900	0.518700	0.919200
H191	H19	0.842900	0.642300	0.179600
H201	H20	0.824300	0.539000	0.073500
H211	H21	0.900500	0.669200	0.105300
H221	H22	0.157100	0.336700	0.799400
H231	H23	0.175700	0.249200	0.714700
H241	H24	0.099500	0.204800	0.768700
C11	C1	0.775100	0.634500	0.548000
C21	C2	0.667400	0.532900	0.519700
C31	C3	0.224900	0.772900	0.859400
C41	C4	0.332600	0.852300	0.865500
C51	C5	0.413500	0.298000	0.022900
C61	C6	0.486800	0.269700	0.102300
C71	C7	0.586500	0.609400	0.884500
C81	C8	0.513200	0.615500	0.782900
C91	C9	0.913500	0.772900	0.548000
C101	C10	0.986800	0.852300	0.519700
C111	C11	0.086500	0.634500	0.859400
C121	C12	0.013200	0.532900	0.865500
C131	C13	0.724900	0.609400	0.022900
C141	C14	0.832600	0.615500	0.102300
C151	C15	0.275100	0.298000	0.884500
C161	C16	0.167400	0.269700	0.782900
C171	C17	0.799200	0.677000	0.476200
C181	C18	0.724800	0.629400	0.354200
C191	C19	0.200800	0.677000	0.877800
C201	C20	0.275200	0.629400	0.904600
C211	C21	0.299200	0.226200	0.927000
C221	C22	0.224800	0.104200	0.879400
C231	C23	0.700800	0.627800	0.927000
C241	C24	0.775200	0.654600	0.879400
N11	N1	0.868200	0.702200	0.654200
N21	N2	0.131800	0.786000	0.834000
N31	N3	0.452000	0.404200	0.036000
N41	N4	0.548000	0.584000	0.952200
N51	N5	0.952000	0.786000	0.654200
N61	N6	0.048000	0.702200	0.834000
N71	N7	0.631800	0.584000	0.036000
N81	N8	0.368200	0.404200	0.952200
O11	O1	0.623000	0.539700	0.296500
O21	O2	0.377000	0.673500	0.916700
O31	O3	0.256800	0.046500	0.923500
O41	O4	0.743200	0.666700	0.789700
O51	O5	0.756800	0.673500	0.296500
O61	O6	0.243200	0.539700	0.916700
O71	O7	0.877000	0.666700	0.923500
O81	O8	0.123000	0.046500	0.789700
