data_ZEDLOL_clean_PM
_symmetry_space_group_name_H-M	'P1'
_cell_length_a	9.863300
_cell_length_b	16.440900
_cell_length_c	18.218700
_cell_angle_alpha	90.000000
_cell_angle_beta	94.197000
_cell_angle_gamma	90.000000
_symmetry_Int_Tables_number 1

loop_
_symmetry_equiv_pos_as_xyz
'x,y,z'

loop_
_atom_site_label
_atom_site_type_symbol
_atom_site_fract_x
_atom_site_fract_y
_atom_site_fract_z
C11	C1	0.787300	0.569200	0.023100
C21	C2	0.742300	0.645400	0.058700
C31	C3	0.809000	0.678500	0.118100
H11	H1	0.891600	0.657000	0.137000
C41	C4	0.751000	0.748000	0.152300
H21	H2	0.794900	0.773900	0.192800
C51	C5	0.621600	0.774900	0.120400
C61	C6	0.560600	0.743100	0.062400
H31	H3	0.477000	0.762800	0.043200
C71	C7	0.620000	0.681600	0.030900
H41	H4	0.578200	0.660900	0.987500
C81	C8	0.611400	0.869600	0.213600
H51	H5	0.689000	0.900300	0.198900
H61	H6	0.643300	0.828300	0.248800
C91	C9	0.424400	0.983600	0.191600
H71	H7	0.488500	0.014000	0.164400
H81	H8	0.369800	0.949800	0.157200
C101	C10	0.274800	0.098200	0.186700
C111	C11	0.274900	0.105800	0.114000
C121	C12	0.195200	0.170100	0.076700
C131	C13	0.131400	0.224500	0.117800
C141	C14	0.158100	0.221200	0.192200
H91	H9	0.127800	0.263200	0.221000
C151	C15	0.227900	0.157900	0.225500
H101	H10	0.242600	0.157100	0.276500
C161	C16	0.049600	0.290500	0.079900
C171	C17	0.375900	0.581400	0.907800
H111	H11	0.395100	0.531000	0.929300
C181	C18	0.286400	0.696700	0.883000
H121	H12	0.229800	0.741900	0.883400
C191	C19	0.388300	0.686300	0.836900
H131	H13	0.415100	0.722900	0.801900
C201	C20	0.549000	0.569400	0.817600
H141	H14	0.614400	0.608700	0.802300
H151	H15	0.595700	0.534400	0.854100
C211	C21	0.624200	0.465100	0.730700
H161	H16	0.693200	0.501500	0.714300
H171	H17	0.596100	0.429600	0.689900
C221	C22	0.645700	0.338600	0.813900
H181	H18	0.575000	0.306900	0.792800
C231	C23	0.788300	0.436500	0.837500
H191	H19	0.835300	0.485300	0.834700
C241	C24	0.727900	0.319700	0.871500
H201	H20	0.726000	0.271200	0.897500
N11	N1	0.280000	0.631500	0.928000
N21	N2	0.441700	0.612800	0.852300
N31	N3	0.685200	0.415300	0.790800
N41	N4	0.816400	0.382000	0.887400
O11	O1	0.710600	0.534900	0.975500
O21	O2	0.902200	0.539500	0.046200
O31	O3	0.545500	0.835800	0.155700
O41	O4	0.341800	0.036300	0.227900
O51	O5	0.043800	0.358600	0.111600
O61	O6	0.991900	0.278100	0.019400
Cd11	Cd1	0.100430	0.591730	0.996010
C251	C25	0.819000	0.070800	0.377000
C261	C26	0.912000	0.152000	0.401000
C271	C27	0.212700	0.569200	0.476900
C281	C28	0.257700	0.645400	0.441300
C291	C29	0.191000	0.678500	0.381900
H211	H21	0.108400	0.657000	0.363000
C301	C30	0.249000	0.748000	0.347700
H221	H22	0.205100	0.773900	0.307200
C311	C31	0.378400	0.774900	0.379600
C321	C32	0.439400	0.743100	0.437600
H231	H23	0.523000	0.762800	0.456800
C331	C33	0.380000	0.681600	0.469100
H241	H24	0.421800	0.660900	0.512500
C341	C34	0.388600	0.869600	0.286400
H251	H25	0.311000	0.900300	0.301100
H261	H26	0.356700	0.828300	0.251200
C351	C35	0.575600	0.983600	0.308400
H271	H27	0.511500	0.014000	0.335600
H281	H28	0.630200	0.949800	0.342800
C361	C36	0.725200	0.098200	0.313300
C371	C37	0.725100	0.105800	0.386000
C381	C38	0.804800	0.170100	0.423300
C391	C39	0.868600	0.224500	0.382200
C401	C40	0.841900	0.221200	0.307800
H291	H29	0.872200	0.263200	0.279000
C411	C41	0.772100	0.157900	0.274500
H301	H30	0.757400	0.157100	0.223500
C421	C42	0.950400	0.290500	0.420100
C431	C43	0.624100	0.581400	0.592200
H311	H31	0.604900	0.531000	0.570700
C441	C44	0.713600	0.696700	0.617000
H321	H32	0.770200	0.741900	0.616600
C451	C45	0.611700	0.686300	0.663100
H331	H33	0.584900	0.722900	0.698100
C461	C46	0.451000	0.569400	0.682400
H341	H34	0.385600	0.608700	0.697700
H351	H35	0.404300	0.534400	0.645900
C471	C47	0.375800	0.465100	0.769300
H361	H36	0.306800	0.501500	0.785700
H371	H37	0.403900	0.429600	0.810100
C481	C48	0.354300	0.338600	0.686100
H381	H38	0.425000	0.306900	0.707200
C491	C49	0.211700	0.436500	0.662500
H391	H39	0.164700	0.485300	0.665300
C501	C50	0.272100	0.319700	0.628500
H401	H40	0.274000	0.271200	0.602500
N51	N5	0.720000	0.631500	0.572000
N61	N6	0.558300	0.612800	0.647700
N71	N7	0.314800	0.415300	0.709200
N81	N8	0.183600	0.382000	0.612600
O71	O7	0.289400	0.534900	0.524500
O81	O8	0.097800	0.539500	0.453800
O91	O9	0.454500	0.835800	0.344300
O101	O10	0.658200	0.036300	0.272100
O111	O11	0.956200	0.358600	0.388400
O121	O12	0.008100	0.278100	0.480600
Cd21	Cd2	0.899570	0.591730	0.503990
C511	C51	0.181000	0.070800	0.123000
C521	C52	0.088000	0.152000	0.099000
C531	C53	0.212700	0.430800	0.976900
C541	C54	0.257700	0.354600	0.941300
C551	C55	0.191000	0.321500	0.881900
H411	H41	0.108400	0.343000	0.863000
C561	C56	0.249000	0.252000	0.847700
H421	H42	0.205100	0.226100	0.807200
C571	C57	0.378400	0.225100	0.879600
C581	C58	0.439400	0.256900	0.937600
H431	H43	0.523000	0.237200	0.956800
C591	C59	0.380000	0.318400	0.969100
H441	H44	0.421800	0.339100	0.012500
C601	C60	0.388600	0.130400	0.786400
H451	H45	0.311000	0.099700	0.801100
H461	H46	0.356700	0.171700	0.751200
C611	C61	0.575600	0.016400	0.808400
H471	H47	0.511500	0.986000	0.835600
H481	H48	0.630200	0.050200	0.842800
C621	C62	0.725200	0.901800	0.813300
C631	C63	0.725100	0.894200	0.886000
C641	C64	0.804800	0.829900	0.923300
C651	C65	0.868600	0.775500	0.882200
C661	C66	0.841900	0.778800	0.807800
H491	H49	0.872200	0.736800	0.779000
C671	C67	0.772100	0.842100	0.774500
H501	H50	0.757400	0.842900	0.723500
C681	C68	0.950400	0.709500	0.920100
C691	C69	0.624100	0.418600	0.092200
H511	H51	0.604900	0.469000	0.070700
C701	C70	0.713600	0.303300	0.117000
H521	H52	0.770200	0.258100	0.116600
C711	C71	0.611700	0.313700	0.163100
H531	H53	0.584900	0.277100	0.198100
C721	C72	0.451000	0.430600	0.182400
H541	H54	0.385600	0.391300	0.197700
H551	H55	0.404300	0.465600	0.145900
C731	C73	0.375800	0.534900	0.269300
H561	H56	0.306800	0.498500	0.285700
H571	H57	0.403900	0.570400	0.310100
C741	C74	0.354300	0.661400	0.186100
H581	H58	0.425000	0.693100	0.207200
C751	C75	0.211700	0.563500	0.162500
H591	H59	0.164700	0.514700	0.165300
C761	C76	0.272100	0.680300	0.128500
H601	H60	0.274000	0.728800	0.102500
N91	N9	0.720000	0.368500	0.072000
N101	N10	0.558300	0.387200	0.147700
N111	N11	0.314800	0.584700	0.209200
N121	N12	0.183600	0.618000	0.112600
O131	O13	0.289400	0.465100	0.024500
O141	O14	0.097800	0.460500	0.953800
O151	O15	0.454500	0.164200	0.844300
O161	O16	0.658200	0.963700	0.772100
O171	O17	0.956200	0.641400	0.888400
O181	O18	0.008100	0.721900	0.980600
Cd31	Cd3	0.899570	0.408270	0.003990
C771	C77	0.181000	0.929200	0.623000
C781	C78	0.088000	0.848000	0.599000
C791	C79	0.787300	0.430800	0.523100
C801	C80	0.742300	0.354600	0.558700
C811	C81	0.809000	0.321500	0.618100
H611	H61	0.891600	0.343000	0.637000
C821	C82	0.751000	0.252000	0.652300
H621	H62	0.794900	0.226100	0.692800
C831	C83	0.621600	0.225100	0.620400
C841	C84	0.560600	0.256900	0.562400
H631	H63	0.477000	0.237200	0.543200
C851	C85	0.620000	0.318400	0.530900
H641	H64	0.578200	0.339100	0.487500
C861	C86	0.611400	0.130400	0.713600
H651	H65	0.689000	0.099700	0.698900
H661	H66	0.643300	0.171700	0.748800
C871	C87	0.424400	0.016400	0.691600
H671	H67	0.488500	0.986000	0.664400
H681	H68	0.369800	0.050200	0.657200
C881	C88	0.274800	0.901800	0.686700
C891	C89	0.274900	0.894200	0.614000
C901	C90	0.195200	0.829900	0.576700
C911	C91	0.131400	0.775500	0.617800
C921	C92	0.158100	0.778800	0.692200
H691	H69	0.127800	0.736800	0.721000
C931	C93	0.227900	0.842100	0.725500
H701	H70	0.242600	0.842900	0.776500
C941	C94	0.049600	0.709500	0.579900
C951	C95	0.375900	0.418600	0.407800
H711	H71	0.395100	0.469000	0.429300
C961	C96	0.286400	0.303300	0.383000
H721	H72	0.229800	0.258100	0.383400
C971	C97	0.388300	0.313700	0.336900
H731	H73	0.415100	0.277100	0.301900
C981	C98	0.549000	0.430600	0.317600
H741	H74	0.614400	0.391300	0.302300
H751	H75	0.595700	0.465600	0.354100
C991	C99	0.624200	0.534900	0.230700
H761	H76	0.693200	0.498500	0.214300
H771	H77	0.596100	0.570400	0.189900
C1001	C100	0.645700	0.661400	0.313900
H781	H78	0.575000	0.693100	0.292800
C1011	C101	0.788300	0.563500	0.337500
H791	H79	0.835300	0.514700	0.334700
C1021	C102	0.727900	0.680300	0.371500
H801	H80	0.726000	0.728800	0.397500
N131	N13	0.280000	0.368500	0.428000
N141	N14	0.441700	0.387200	0.352300
N151	N15	0.685200	0.584700	0.290800
N161	N16	0.816400	0.618000	0.387400
O191	O19	0.710600	0.465100	0.475500
O201	O20	0.902200	0.460500	0.546200
O211	O21	0.545500	0.164200	0.655700
O221	O22	0.341800	0.963700	0.727900
O231	O23	0.043800	0.641400	0.611600
O241	O24	0.991900	0.721900	0.519400
Cd41	Cd4	0.100430	0.408270	0.496010
C1031	C103	0.819000	0.929200	0.877000
C1041	C104	0.912000	0.848000	0.901000
C1051	C105	0.500000	0.930900	0.250000
C1061	C106	0.500000	0.069100	0.750000
C1071	C107	0.500000	0.516700	0.750000
C1081	C108	0.500000	0.483300	0.250000
