data_ZEDQOQ_clean_PM
_symmetry_space_group_name_H-M	'P1'
_cell_length_a	8.198400
_cell_length_b	19.134000
_cell_length_c	19.519000
_cell_angle_alpha	90.000000
_cell_angle_beta	90.000000
_cell_angle_gamma	90.000000
_symmetry_Int_Tables_number 1

loop_
_symmetry_equiv_pos_as_xyz
'x,y,z'

loop_
_atom_site_label
_atom_site_type_symbol
_atom_site_fract_x
_atom_site_fract_y
_atom_site_fract_z
Sr11	Sr1	0.259920	0.997000	0.497410
Sr21	Sr2	0.239510	0.771400	0.901440
Sr31	Sr3	0.740080	0.503000	0.997410
Sr41	Sr4	0.760490	0.728600	0.401440
Sr51	Sr5	0.759920	0.003000	0.002590
Sr61	Sr6	0.739510	0.228600	0.598560
Sr71	Sr7	0.240080	0.497000	0.502590
Sr81	Sr8	0.260490	0.271400	0.098560
Sr91	Sr9	0.740080	0.003000	0.502590
Sr101	Sr10	0.760490	0.228600	0.098560
Sr111	Sr11	0.259920	0.497000	0.002590
Sr121	Sr12	0.239510	0.271400	0.598560
Sr131	Sr13	0.240080	0.997000	0.997410
Sr141	Sr14	0.260490	0.771400	0.401440
Sr151	Sr15	0.759920	0.503000	0.497410
Sr161	Sr16	0.739510	0.728600	0.901440
H11	H1	0.007100	0.931500	0.583900
H21	H2	0.001700	0.893800	0.526700
H31	H3	0.516900	0.846400	0.729800
H41	H4	0.479100	0.085100	0.693500
H51	H5	0.992900	0.568500	0.083900
H61	H6	0.998300	0.606200	0.026700
H71	H7	0.483100	0.653600	0.229800
H81	H8	0.520900	0.414900	0.193500
H91	H9	0.507100	0.068500	0.916100
H101	H10	0.501700	0.106200	0.973300
H111	H11	0.016900	0.153600	0.770200
H121	H12	0.979100	0.914900	0.806500
H131	H13	0.492900	0.431500	0.416100
H141	H14	0.498300	0.393800	0.473300
H151	H15	0.983100	0.346400	0.270200
H161	H16	0.020900	0.585100	0.306500
H171	H17	0.992900	0.068500	0.416100
H181	H18	0.998300	0.106200	0.473300
H191	H19	0.483100	0.153600	0.270200
H201	H20	0.520900	0.914900	0.306500
H211	H21	0.007100	0.431500	0.916100
H221	H22	0.001700	0.393800	0.973300
H231	H23	0.516900	0.346400	0.770200
H241	H24	0.479100	0.585100	0.806500
H251	H25	0.492900	0.931500	0.083900
H261	H26	0.498300	0.893800	0.026700
H271	H27	0.983100	0.846400	0.229800
H281	H28	0.020900	0.085100	0.193500
H291	H29	0.507100	0.568500	0.583900
H301	H30	0.501700	0.606200	0.526700
H311	H31	0.016900	0.653600	0.729800
H321	H32	0.979100	0.414900	0.693500
C11	C1	0.497800	0.920700	0.657800
C21	C2	0.503700	0.894200	0.723100
C31	C3	0.490100	0.938400	0.779300
C41	C4	0.484800	0.012500	0.768300
C51	C5	0.484500	0.037100	0.700600
C61	C6	0.491800	0.994700	0.644600
C71	C7	0.502200	0.579300	0.157800
C81	C8	0.496300	0.605800	0.223100
C91	C9	0.509900	0.561600	0.279300
C101	C10	0.515200	0.487500	0.268300
C111	C11	0.515500	0.462900	0.200600
C121	C12	0.508200	0.505300	0.144600
C131	C13	0.997800	0.079300	0.842200
C141	C14	0.003700	0.105800	0.776900
C151	C15	0.990100	0.061600	0.720700
C161	C16	0.984800	0.987500	0.731700
C171	C17	0.984500	0.962900	0.799400
C181	C18	0.991800	0.005300	0.855400
C191	C19	0.002200	0.420700	0.342200
C201	C20	0.996300	0.394200	0.276900
C211	C21	0.009900	0.438400	0.220700
C221	C22	0.015200	0.512500	0.231700
C231	C23	0.015500	0.537100	0.299400
C241	C24	0.008200	0.494700	0.355400
C251	C25	0.502200	0.079300	0.342200
C261	C26	0.496300	0.105800	0.276900
C271	C27	0.509900	0.061600	0.220700
C281	C28	0.515200	0.987500	0.231700
C291	C29	0.515500	0.962900	0.299400
C301	C30	0.508200	0.005300	0.355400
C311	C31	0.497800	0.420700	0.842200
C321	C32	0.503700	0.394200	0.776900
C331	C33	0.490100	0.438400	0.720700
C341	C34	0.484800	0.512500	0.731700
C351	C35	0.484500	0.537100	0.799400
C361	C36	0.491800	0.494700	0.855400
C371	C37	0.002200	0.920700	0.157800
C381	C38	0.996300	0.894200	0.223100
C391	C39	0.009900	0.938400	0.279300
C401	C40	0.015200	0.012500	0.268300
C411	C41	0.015500	0.037100	0.200600
C421	C42	0.008200	0.994700	0.144600
C431	C43	0.997800	0.579300	0.657800
C441	C44	0.003700	0.605800	0.723100
C451	C45	0.990100	0.561600	0.779300
C461	C46	0.984800	0.487500	0.768300
C471	C47	0.984500	0.462900	0.700600
C481	C48	0.991800	0.505300	0.644600
S11	S1	0.504080	0.865240	0.586800
S21	S2	0.500190	0.904490	0.863310
S31	S3	0.495920	0.634760	0.086800
S41	S4	0.499810	0.595510	0.363310
S51	S5	0.004080	0.134760	0.913200
S61	S6	0.000190	0.095510	0.636690
S71	S7	0.995920	0.365240	0.413200
S81	S8	0.999810	0.404490	0.136690
S91	S9	0.495920	0.134760	0.413200
S101	S10	0.499810	0.095510	0.136690
S111	S11	0.504080	0.365240	0.913200
S121	S12	0.500190	0.404490	0.636690
S131	S13	0.995920	0.865240	0.086800
S141	S14	0.999810	0.904490	0.363310
S151	S15	0.004080	0.634760	0.586800
S161	S16	0.000190	0.595510	0.863310
O11	O1	0.355600	0.878400	0.548200
O21	O2	0.004300	0.933700	0.541940
O31	O3	0.649900	0.882900	0.546400
O41	O4	0.956700	0.831500	0.901500
O51	O5	0.512900	0.793160	0.611500
O61	O6	0.519300	0.829200	0.856000
O71	O7	0.343900	0.922200	0.896800
O81	O8	0.639500	0.935800	0.898300
O91	O9	0.491900	0.019610	0.582140
O101	O10	0.468800	0.054200	0.821900
O111	O11	0.644400	0.621600	0.048200
O121	O12	0.995700	0.566300	0.041940
O131	O13	0.350100	0.617100	0.046400
O141	O14	0.043300	0.668500	0.401500
O151	O15	0.487100	0.706840	0.111500
O161	O16	0.480700	0.670800	0.356000
O171	O17	0.656100	0.577800	0.396800
O181	O18	0.360500	0.564200	0.398300
O191	O19	0.508100	0.480390	0.082140
O201	O20	0.531200	0.445800	0.321900
O211	O21	0.855600	0.121600	0.951800
O221	O22	0.504300	0.066300	0.958060
O231	O23	0.149900	0.117100	0.953600
O241	O24	0.456700	0.168500	0.598500
O251	O25	0.012900	0.206840	0.888500
O261	O26	0.019300	0.170800	0.644000
O271	O27	0.843900	0.077800	0.603200
O281	O28	0.139500	0.064200	0.601700
O291	O29	0.991900	0.980390	0.917860
O301	O30	0.968800	0.945800	0.678100
O311	O31	0.144400	0.378400	0.451800
O321	O32	0.495700	0.433700	0.458060
O331	O33	0.850100	0.382900	0.453600
O341	O34	0.543300	0.331500	0.098500
O351	O35	0.987100	0.293160	0.388500
O361	O36	0.980700	0.329200	0.144000
O371	O37	0.156100	0.422200	0.103200
O381	O38	0.860500	0.435800	0.101700
O391	O39	0.008100	0.519610	0.417860
O401	O40	0.031200	0.554200	0.178100
O411	O41	0.644400	0.121600	0.451800
O421	O42	0.995700	0.066300	0.458060
O431	O43	0.350100	0.117100	0.453600
O441	O44	0.043300	0.168500	0.098500
O451	O45	0.487100	0.206840	0.388500
O461	O46	0.480700	0.170800	0.144000
O471	O47	0.656100	0.077800	0.103200
O481	O48	0.360500	0.064200	0.101700
O491	O49	0.508100	0.980390	0.417860
O501	O50	0.531200	0.945800	0.178100
O511	O51	0.355600	0.378400	0.951800
O521	O52	0.004300	0.433700	0.958060
O531	O53	0.649900	0.382900	0.953600
O541	O54	0.956700	0.331500	0.598500
O551	O55	0.512900	0.293160	0.888500
O561	O56	0.519300	0.329200	0.644000
O571	O57	0.343900	0.422200	0.603200
O581	O58	0.639500	0.435800	0.601700
O591	O59	0.491900	0.519610	0.917860
O601	O60	0.468800	0.554200	0.678100
O611	O61	0.144400	0.878400	0.048200
O621	O62	0.495700	0.933700	0.041940
O631	O63	0.850100	0.882900	0.046400
O641	O64	0.543300	0.831500	0.401500
O651	O65	0.987100	0.793160	0.111500
O661	O66	0.980700	0.829200	0.356000
O671	O67	0.156100	0.922200	0.396800
O681	O68	0.860500	0.935800	0.398300
O691	O69	0.008100	0.019610	0.082140
O701	O70	0.031200	0.054200	0.321900
O711	O71	0.855600	0.621600	0.548200
O721	O72	0.504300	0.566300	0.541940
O731	O73	0.149900	0.617100	0.546400
O741	O74	0.456700	0.668500	0.901500
O751	O75	0.012900	0.706840	0.611500
O761	O76	0.019300	0.670800	0.856000
O771	O77	0.843900	0.577800	0.896800
O781	O78	0.139500	0.564200	0.898300
O791	O79	0.991900	0.480390	0.582140
O801	O80	0.968800	0.445800	0.821900
