data_ZEDQEG_clean_PM
_symmetry_space_group_name_H-M	'P1'
_cell_length_a	12.880000
_cell_length_b	16.870000
_cell_length_c	17.407000
_cell_angle_alpha	90.000000
_cell_angle_beta	90.000000
_cell_angle_gamma	90.000000
_symmetry_Int_Tables_number 1

loop_
_symmetry_equiv_pos_as_xyz
'x,y,z'

loop_
_atom_site_label
_atom_site_type_symbol
_atom_site_fract_x
_atom_site_fract_y
_atom_site_fract_z
Ca11	Ca1	0.374300	0.531990	0.458450
Ca21	Ca2	0.261450	0.641850	0.635710
Ca31	Ca3	0.125700	0.031990	0.041550
Ca41	Ca4	0.238550	0.141850	0.864290
Ca51	Ca5	0.625700	0.968010	0.458450
Ca61	Ca6	0.738550	0.858150	0.635710
Ca71	Ca7	0.874300	0.468010	0.041550
Ca81	Ca8	0.761450	0.358150	0.864290
Ca91	Ca9	0.625700	0.468010	0.541550
Ca101	Ca10	0.738550	0.358150	0.364290
Ca111	Ca11	0.874300	0.968010	0.958450
Ca121	Ca12	0.761450	0.858150	0.135710
Ca131	Ca13	0.374300	0.031990	0.541550
Ca141	Ca14	0.261450	0.141850	0.364290
Ca151	Ca15	0.125700	0.531990	0.958450
Ca161	Ca16	0.238550	0.641850	0.135710
H11	H1	0.296400	0.316000	0.694400
H21	H2	0.403500	0.277800	0.442300
H31	H3	0.203600	0.816000	0.805600
H41	H4	0.096500	0.777800	0.057700
H51	H5	0.703600	0.184000	0.694400
H61	H6	0.596500	0.222200	0.442300
H71	H7	0.796400	0.684000	0.805600
H81	H8	0.903500	0.722200	0.057700
H91	H9	0.703600	0.684000	0.305600
H101	H10	0.596500	0.722200	0.557700
H111	H11	0.796400	0.184000	0.194400
H121	H12	0.903500	0.222200	0.942300
H131	H13	0.296400	0.816000	0.305600
H141	H14	0.403500	0.777800	0.557700
H151	H15	0.203600	0.316000	0.194400
H161	H16	0.096500	0.277800	0.942300
C11	C1	0.372700	0.366820	0.606060
C21	C2	0.318700	0.307870	0.644160
C31	C3	0.297700	0.236400	0.607360
C41	C4	0.329890	0.223030	0.529810
C51	C5	0.383350	0.284980	0.493100
C61	C6	0.407840	0.356470	0.528750
C71	C7	0.127300	0.866820	0.893940
C81	C8	0.181300	0.807870	0.855840
C91	C9	0.202300	0.736400	0.892640
C101	C10	0.170110	0.723030	0.970190
C111	C11	0.116650	0.784980	0.006900
C121	C12	0.092160	0.856470	0.971250
C131	C13	0.627300	0.133180	0.606060
C141	C14	0.681300	0.192130	0.644160
C151	C15	0.702300	0.263600	0.607360
C161	C16	0.670110	0.276970	0.529810
C171	C17	0.616650	0.215020	0.493100
C181	C18	0.592160	0.143530	0.528750
C191	C19	0.872700	0.633180	0.893940
C201	C20	0.818700	0.692130	0.855840
C211	C21	0.797700	0.763600	0.892640
C221	C22	0.829890	0.776970	0.970190
C231	C23	0.883350	0.715020	0.006900
C241	C24	0.907840	0.643530	0.971250
C251	C25	0.627300	0.633180	0.393940
C261	C26	0.681300	0.692130	0.355840
C271	C27	0.702300	0.763600	0.392640
C281	C28	0.670110	0.776970	0.470190
C291	C29	0.616650	0.715020	0.506900
C301	C30	0.592160	0.643530	0.471250
C311	C31	0.872700	0.133180	0.106060
C321	C32	0.818700	0.192130	0.144160
C331	C33	0.797700	0.263600	0.107360
C341	C34	0.829890	0.276970	0.029810
C351	C35	0.883350	0.215020	0.993100
C361	C36	0.907840	0.143530	0.028750
C371	C37	0.372700	0.866820	0.393940
C381	C38	0.318700	0.807870	0.355840
C391	C39	0.297700	0.736400	0.392640
C401	C40	0.329890	0.723030	0.470190
C411	C41	0.383350	0.784980	0.506900
C421	C42	0.407840	0.856470	0.471250
C431	C43	0.127300	0.366820	0.106060
C441	C44	0.181300	0.307870	0.144160
C451	C45	0.202300	0.236400	0.107360
C461	C46	0.170110	0.223030	0.029810
C471	C47	0.116650	0.284980	0.993100
C481	C48	0.092160	0.356470	0.028750
S11	S1	0.395210	0.458340	0.649320
S21	S2	0.222500	0.164190	0.652590
S31	S3	0.104790	0.958340	0.850680
S41	S4	0.277500	0.664190	0.847410
S51	S5	0.604790	0.041660	0.649320
S61	S6	0.777500	0.335810	0.652590
S71	S7	0.895210	0.541660	0.850680
S81	S8	0.722500	0.835810	0.847410
S91	S9	0.604790	0.541660	0.350680
S101	S10	0.777500	0.835810	0.347410
S111	S11	0.895210	0.041660	0.149320
S121	S12	0.722500	0.335810	0.152590
S131	S13	0.395210	0.958340	0.350680
S141	S14	0.222500	0.664190	0.347410
S151	S15	0.104790	0.458340	0.149320
S161	S16	0.277500	0.164190	0.152590
O11	O1	0.340820	0.517070	0.600660
O21	O2	0.507250	0.472520	0.649310
O31	O3	0.351820	0.456190	0.726450
O41	O4	0.209970	0.188390	0.732660
O51	O5	0.122580	0.161350	0.612720
O61	O6	0.277200	0.088520	0.646440
O71	O7	0.460670	0.413100	0.492890
O81	O8	0.310000	0.155880	0.494840
O91	O9	0.159180	0.017070	0.899340
O101	O10	0.992750	0.972520	0.850690
O111	O11	0.148180	0.956190	0.773550
O121	O12	0.290030	0.688390	0.767340
O131	O13	0.377420	0.661350	0.887280
O141	O14	0.222800	0.588520	0.853560
O151	O15	0.039330	0.913100	0.007110
O161	O16	0.190000	0.655880	0.005160
O171	O17	0.659180	0.982930	0.600660
O181	O18	0.492750	0.027480	0.649310
O191	O19	0.648180	0.043810	0.726450
O201	O20	0.790030	0.311610	0.732660
O211	O21	0.877420	0.338650	0.612720
O221	O22	0.722800	0.411480	0.646440
O231	O23	0.539330	0.086900	0.492890
O241	O24	0.690000	0.344120	0.494840
O251	O25	0.840820	0.482930	0.899340
O261	O26	0.007250	0.527480	0.850690
O271	O27	0.851820	0.543810	0.773550
O281	O28	0.709970	0.811610	0.767340
O291	O29	0.622580	0.838650	0.887280
O301	O30	0.777200	0.911480	0.853560
O311	O31	0.960670	0.586900	0.007110
O321	O32	0.810000	0.844120	0.005160
O331	O33	0.659180	0.482930	0.399340
O341	O34	0.492750	0.527480	0.350690
O351	O35	0.648180	0.543810	0.273550
O361	O36	0.790030	0.811610	0.267340
O371	O37	0.877420	0.838650	0.387280
O381	O38	0.722800	0.911480	0.353560
O391	O39	0.539330	0.586900	0.507110
O401	O40	0.690000	0.844120	0.505160
O411	O41	0.840820	0.982930	0.100660
O421	O42	0.007250	0.027480	0.149310
O431	O43	0.851820	0.043810	0.226450
O441	O44	0.709970	0.311610	0.232660
O451	O45	0.622580	0.338650	0.112720
O461	O46	0.777200	0.411480	0.146440
O471	O47	0.960670	0.086900	0.992890
O481	O48	0.810000	0.344120	0.994840
O491	O49	0.340820	0.017070	0.399340
O501	O50	0.507250	0.972520	0.350690
O511	O51	0.351820	0.956190	0.273550
O521	O52	0.209970	0.688390	0.267340
O531	O53	0.122580	0.661350	0.387280
O541	O54	0.277200	0.588520	0.353560
O551	O55	0.460670	0.913100	0.507110
O561	O56	0.310000	0.655880	0.505160
O571	O57	0.159180	0.517070	0.100660
O581	O58	0.992750	0.472520	0.149310
O591	O59	0.148180	0.456190	0.226450
O601	O60	0.290030	0.188390	0.232660
O611	O61	0.377420	0.161350	0.112720
O621	O62	0.222800	0.088520	0.146440
O631	O63	0.039330	0.413100	0.992890
O641	O64	0.190000	0.155880	0.994840
