data_ZEDRAD_clean_PM
_symmetry_space_group_name_H-M	'P1'
_cell_length_a	5.876700
_cell_length_b	7.501200
_cell_length_c	16.476000
_cell_angle_alpha	90.000000
_cell_angle_beta	90.000000
_cell_angle_gamma	94.470000
_symmetry_Int_Tables_number 1

loop_
_symmetry_equiv_pos_as_xyz
'x,y,z'

loop_
_atom_site_label
_atom_site_type_symbol
_atom_site_fract_x
_atom_site_fract_y
_atom_site_fract_z
Ba11	Ba1	0.819640	0.713040	0.532800
Ba21	Ba2	0.180360	0.286960	0.032800
Ba31	Ba3	0.180360	0.286960	0.467200
Ba41	Ba4	0.819640	0.713040	0.967200
H11	H1	0.456700	0.847500	0.250000
H21	H2	0.791900	0.473800	0.250000
H31	H3	0.543300	0.152500	0.750000
H41	H4	0.208100	0.526200	0.750000
C11	C1	0.226100	0.717100	0.323160
C21	C2	0.019300	0.602300	0.324900
C31	C3	0.773900	0.282900	0.823160
C41	C4	0.980700	0.397700	0.824900
C51	C5	0.773900	0.282900	0.676840
C61	C6	0.980700	0.397700	0.675100
C71	C7	0.226100	0.717100	0.176840
C81	C8	0.019300	0.602300	0.175100
C91	C9	0.323400	0.772100	0.250000
C101	C10	0.925300	0.549200	0.250000
C111	C11	0.676600	0.227900	0.750000
C121	C12	0.074700	0.450800	0.750000
S11	S1	0.338760	0.799120	0.414890
S21	S2	0.661240	0.200880	0.914890
S31	S3	0.661240	0.200880	0.585110
S41	S4	0.338760	0.799120	0.085110
O11	O1	0.557300	0.898300	0.399360
O21	O2	0.366500	0.646700	0.468930
O31	O3	0.169500	0.911700	0.449360
O41	O4	0.925800	0.543500	0.393750
O51	O5	0.442700	0.101700	0.899360
O61	O6	0.633500	0.353300	0.968930
O71	O7	0.830500	0.088300	0.949360
O81	O8	0.074200	0.456500	0.893750
O91	O9	0.442700	0.101700	0.600640
O101	O10	0.633500	0.353300	0.531070
O111	O11	0.830500	0.088300	0.550640
O121	O12	0.074200	0.456500	0.606250
O131	O13	0.557300	0.898300	0.100640
O141	O14	0.366500	0.646700	0.031070
O151	O15	0.169500	0.911700	0.050640
O161	O16	0.925800	0.543500	0.106250
