data_ZEDVOV_charged_PM
_symmetry_space_group_name_H-M	'P1'
_cell_length_a	11.649000
_cell_length_b	16.833000
_cell_length_c	25.515000
_cell_angle_alpha	99.170000
_cell_angle_beta	101.550000
_cell_angle_gamma	93.410000
_symmetry_Int_Tables_number 1

loop_
_symmetry_equiv_pos_as_xyz
'x,y,z'

loop_
_atom_site_label
_atom_site_type_symbol
_atom_site_fract_x
_atom_site_fract_y
_atom_site_fract_z
Nd11	Nd1	0.927370	0.207200	0.104190
Nd21	Nd2	0.596290	0.803000	0.307060
Nd31	Nd3	0.072630	0.792800	0.895810
Nd41	Nd4	0.403710	0.197000	0.692940
H11	H1	0.648800	0.941900	0.053700
H21	H2	0.516300	0.143100	0.997700
H31	H3	0.730200	0.425700	0.284900
H41	H4	0.893200	0.428900	0.159700
H51	H5	0.901300	0.504500	0.070700
H61	H6	0.068500	0.378000	0.964100
H71	H7	0.178900	0.078300	0.193100
H81	H8	0.285500	0.001700	0.250700
H91	H9	0.459900	0.918600	0.134400
H101	H10	0.347400	0.992300	0.075200
H111	H11	0.336600	0.369900	0.285100
H121	H12	0.450100	0.495400	0.316400
H131	H13	0.234400	0.603300	0.209800
H141	H14	0.121300	0.478500	0.177700
H151	H15	0.883500	0.571100	0.168700
H161	H16	0.704000	0.568000	0.288900
H171	H17	0.381100	0.877800	0.458700
H181	H18	0.662600	0.038900	0.466600
H191	H19	0.351200	0.058100	0.946300
H201	H20	0.483700	0.856900	0.002300
H211	H21	0.269800	0.574300	0.715100
H221	H22	0.106800	0.571100	0.840300
H231	H23	0.098700	0.495500	0.929300
H241	H24	0.931500	0.622000	0.035900
H251	H25	0.821100	0.921700	0.806900
H261	H26	0.714500	0.998300	0.749300
H271	H27	0.540100	0.081400	0.865600
H281	H28	0.652600	0.007700	0.924800
H291	H29	0.663400	0.630100	0.714900
H301	H30	0.549900	0.504600	0.683600
H311	H31	0.765600	0.396700	0.790200
H321	H32	0.878700	0.521500	0.822300
H331	H33	0.116500	0.428900	0.831300
H341	H34	0.296000	0.432000	0.711100
H351	H35	0.618900	0.122200	0.541300
H361	H36	0.337400	0.961100	0.533400
C11	C1	0.705300	0.107800	0.060300
C21	C2	0.596600	0.051500	0.030200
C31	C3	0.588400	0.963100	0.032100
C41	C4	0.509400	0.087900	0.998400
C51	C5	0.818900	0.314100	0.214200
C61	C6	0.814000	0.412100	0.221700
C71	C7	0.757700	0.453600	0.260500
C81	C8	0.857500	0.455500	0.186100
C91	C9	0.959400	0.346600	0.044300
C101	C10	0.979500	0.425300	0.020700
C111	C11	0.940400	0.502500	0.042200
C121	C12	0.040500	0.425400	0.978600
C131	C13	0.168100	0.086800	0.089000
C141	C14	0.247100	0.041500	0.127600
C151	C15	0.232500	0.045300	0.180600
C161	C16	0.298100	0.999500	0.215700
C171	C17	0.383100	0.950200	0.198400
C181	C18	0.402600	0.948900	0.146000
C191	C19	0.334600	0.993900	0.110200
C201	C20	0.452900	0.900400	0.236600
C211	C21	0.141800	0.326300	0.207100
C221	C22	0.216400	0.410000	0.228000
C231	C23	0.315400	0.414900	0.269700
C241	C24	0.384200	0.492100	0.288400
C251	C25	0.357500	0.565000	0.266300
C261	C26	0.256600	0.558300	0.224900
C271	C27	0.187400	0.481900	0.205600
C281	C28	0.435600	0.645800	0.284100
C291	C29	0.758700	0.677000	0.223200
C301	C30	0.782100	0.585300	0.226900
C311	C31	0.847300	0.542500	0.190200
C321	C32	0.741500	0.541900	0.263100
C331	C33	0.551100	0.896600	0.405500
C341	C34	0.523700	0.949600	0.454900
C351	C35	0.427600	0.925700	0.474700
C361	C36	0.597800	0.024300	0.480400
C371	C37	0.294700	0.892200	0.939700
C381	C38	0.403400	0.948500	0.969800
C391	C39	0.411600	0.036900	0.967900
C401	C40	0.490600	0.912100	0.001600
C411	C41	0.181100	0.685900	0.785800
C421	C42	0.186000	0.587900	0.778300
C431	C43	0.242300	0.546400	0.739500
C441	C44	0.142500	0.544500	0.813900
C451	C45	0.040600	0.653400	0.955700
C461	C46	0.020500	0.574700	0.979300
C471	C47	0.059600	0.497500	0.957800
C481	C48	0.959500	0.574600	0.021400
C491	C49	0.831900	0.913200	0.911000
C501	C50	0.752900	0.958500	0.872400
C511	C51	0.767500	0.954700	0.819400
C521	C52	0.701900	0.000500	0.784300
C531	C53	0.616900	0.049800	0.801600
C541	C54	0.597400	0.051100	0.854000
C551	C55	0.665400	0.006100	0.889800
C561	C56	0.547100	0.099600	0.763400
C571	C57	0.858200	0.673700	0.792900
C581	C58	0.783600	0.590000	0.772000
C591	C59	0.684600	0.585100	0.730300
C601	C60	0.615800	0.507900	0.711600
C611	C61	0.642500	0.435000	0.733700
C621	C62	0.743400	0.441700	0.775100
C631	C63	0.812600	0.518100	0.794400
C641	C64	0.564400	0.354200	0.715900
C651	C65	0.241300	0.323000	0.776800
C661	C66	0.217900	0.414700	0.773100
C671	C67	0.152700	0.457500	0.809800
C681	C68	0.258500	0.458100	0.736900
C691	C69	0.448900	0.103400	0.594500
C701	C70	0.476300	0.050400	0.545100
C711	C71	0.572400	0.074300	0.525300
C721	C72	0.402200	0.975700	0.519600
O11	O1	0.926300	0.102600	0.013200
O21	O2	0.781000	0.080800	0.096300
O31	O3	0.972000	0.153000	0.196700
O41	O4	0.724700	0.182700	0.049300
O51	O5	0.812500	0.275500	0.164000
O61	O6	0.762700	0.911600	0.297700
O71	O7	0.760000	0.779200	0.379500
O81	O8	0.830200	0.275600	0.254300
O91	O9	0.022100	0.284600	0.038100
O101	O10	0.876300	0.342100	0.070200
O111	O11	0.114700	0.145700	0.110000
O121	O12	0.158800	0.062000	0.038200
O131	O13	0.436700	0.903300	0.284300
O141	O14	0.528800	0.853800	0.219400
O151	O15	0.063100	0.319800	0.163600
O161	O16	0.160200	0.264600	0.233400
O171	O17	0.409000	0.710400	0.260800
O181	O18	0.526700	0.653100	0.321400
O191	O19	0.694000	0.711100	0.253400
O201	O20	0.797100	0.710200	0.188200
O211	O21	0.494300	0.824100	0.385500
O221	O22	0.630100	0.926000	0.383900
O231	O23	0.073700	0.897400	0.986800
O241	O24	0.219000	0.919200	0.903700
O251	O25	0.028000	0.847000	0.803300
O261	O26	0.275300	0.817300	0.950700
O271	O27	0.187500	0.724500	0.836000
O281	O28	0.237300	0.088400	0.702300
O291	O29	0.240000	0.220800	0.620500
O301	O30	0.169800	0.724400	0.745700
O311	O31	0.977900	0.715400	0.961900
O321	O32	0.123700	0.657900	0.929800
O331	O33	0.885300	0.854300	0.890000
O341	O34	0.841200	0.938000	0.961800
O351	O35	0.563300	0.096700	0.715700
O361	O36	0.471200	0.146200	0.780600
O371	O37	0.936900	0.680200	0.836400
O381	O38	0.839800	0.735400	0.766600
O391	O39	0.591000	0.289600	0.739200
O401	O40	0.473300	0.346900	0.678600
O411	O41	0.306000	0.288900	0.746600
O421	O42	0.202900	0.289800	0.811800
O431	O43	0.505700	0.175900	0.614500
O441	O44	0.369900	0.074000	0.616100
H371	H37	0.233900	0.253500	0.312600
H381	H38	0.226500	0.247700	0.466300
H391	H39	0.393100	0.173000	0.445700
H401	H40	0.512700	0.100100	0.390500
H411	H41	0.638700	0.050000	0.335800
H421	H42	0.631700	0.094200	0.252200
H431	H43	0.323200	0.238900	0.199500
H441	H44	0.643800	0.177900	0.182000
H451	H45	0.557100	0.242400	0.105100
H461	H46	0.320600	0.269800	0.066800
H471	H47	0.251600	0.293100	0.112900
H481	H48	0.271900	0.403100	0.035000
H491	H49	0.328700	0.542300	0.036700
H501	H50	0.537300	0.554600	0.182900
H511	H51	0.484400	0.413700	0.180500
H521	H52	0.518000	0.663800	0.083200
H531	H53	0.526800	0.682200	0.146200
H541	H54	0.325700	0.721400	0.176700
H551	H55	0.345700	0.729300	0.023400
H561	H56	0.173000	0.796700	0.040300
H571	H57	0.050000	0.874200	0.092800
H581	H58	0.931000	0.931700	0.147800
H591	H59	0.934400	0.890900	0.231700
H601	H60	0.235500	0.738400	0.286200
H611	H61	0.917200	0.805200	0.301400
H621	H62	0.996100	0.737300	0.377500
H631	H63	0.302100	0.685600	0.374300
H641	H64	0.230600	0.709200	0.419300
H651	H65	0.300800	0.573600	0.448200
H661	H66	0.257200	0.435300	0.447000
H671	H67	0.010600	0.424100	0.312200
H681	H68	0.058000	0.562100	0.310400
H691	H69	0.039500	0.295800	0.346100
H701	H70	0.053700	0.314800	0.409200
C731	C73	0.253600	0.244100	0.348100
C741	C74	0.250100	0.239900	0.433300
C751	C75	0.342700	0.198700	0.422100
C761	C76	0.427800	0.169700	0.337500
C771	C77	0.510300	0.115400	0.356900
C781	C78	0.586000	0.086500	0.324700
C791	C79	0.582300	0.112800	0.275000
C801	C80	0.500300	0.168600	0.261100
C811	C81	0.391100	0.232100	0.186100
C821	C82	0.570400	0.197900	0.176000
C831	C83	0.522300	0.233600	0.133700
C841	C84	0.328600	0.297100	0.104000
C851	C85	0.372100	0.392100	0.108000
C861	C86	0.325400	0.432000	0.065000
C871	C87	0.359400	0.518500	0.066300
C881	C88	0.436100	0.565000	0.110800
C891	C89	0.483700	0.525600	0.153000
C901	C90	0.450900	0.437900	0.151500
C911	C91	0.474700	0.659800	0.111600
C921	C92	0.309000	0.730900	0.141200
C931	C93	0.319000	0.735900	0.055700
C941	C94	0.224200	0.773200	0.064900
C951	C95	0.133100	0.805900	0.147800
C961	C96	0.052800	0.861300	0.127200
C971	C97	0.981300	0.894000	0.159300
C981	C98	0.984100	0.870700	0.209500
C991	C99	0.065000	0.815600	0.225500
C1001	C100	0.167100	0.746000	0.299100
C1011	C101	0.989300	0.783600	0.307500
C1021	C102	0.033500	0.745900	0.349700
C1031	C103	0.224400	0.681000	0.382400
C1041	C104	0.185400	0.588000	0.379900
C1051	C105	0.242500	0.545100	0.420000
C1061	C106	0.215200	0.459100	0.419500
C1071	C107	0.129100	0.411700	0.379500
C1081	C108	0.070400	0.453000	0.339600
C1091	C109	0.098300	0.539200	0.338700
C1101	C110	0.094200	0.318400	0.379900
N11	N1	0.197100	0.267900	0.386400
N21	N2	0.346600	0.203000	0.368300
N31	N3	0.423700	0.197300	0.290200
N41	N4	0.485800	0.197300	0.209600
N51	N5	0.410500	0.254900	0.140600
N61	N6	0.370300	0.708900	0.103200
N71	N7	0.217100	0.770000	0.118400
N81	N8	0.137500	0.780400	0.195800
N91	N9	0.072600	0.783200	0.275600
N101	N10	0.142800	0.722700	0.344400
H711	H71	0.848400	0.490600	0.425200
H721	H72	0.102400	0.626200	0.540600
H731	H73	0.151600	0.509400	0.574800
H741	H74	0.897600	0.373800	0.459400
C1111	C111	0.930400	0.655300	0.459800
C1121	C112	0.967200	0.574700	0.480000
C1131	C113	0.909100	0.495100	0.455700
C1141	C114	0.059800	0.577100	0.524000
C1151	C115	0.069600	0.344700	0.540200
C1161	C116	0.032800	0.425300	0.520000
C1171	C117	0.090900	0.504900	0.544300
C1181	C118	0.940200	0.422900	0.476000
O451	O45	0.986200	0.726700	0.483100
O461	O46	0.844000	0.647100	0.420400
O471	O47	0.013800	0.273300	0.516900
O481	O48	0.156000	0.352900	0.579600
H751	H75	0.766100	0.746500	0.687400
H761	H76	0.773500	0.752300	0.533700
H771	H77	0.606900	0.827000	0.554300
H781	H78	0.487300	0.899900	0.609500
H791	H79	0.361300	0.950000	0.664200
H801	H80	0.368300	0.905800	0.747800
H811	H81	0.676800	0.761100	0.800500
H821	H82	0.356200	0.822100	0.818000
H831	H83	0.442900	0.757600	0.894900
H841	H84	0.679400	0.730200	0.933200
H851	H85	0.748400	0.706900	0.887100
H861	H86	0.728100	0.596900	0.965000
H871	H87	0.671300	0.457700	0.963300
H881	H88	0.462700	0.445400	0.817100
H891	H89	0.515600	0.586300	0.819500
H901	H90	0.482000	0.336200	0.916800
H911	H91	0.473200	0.317800	0.853800
H921	H92	0.674300	0.278600	0.823300
H931	H93	0.654300	0.270700	0.976600
H941	H94	0.827000	0.203300	0.959700
H951	H95	0.950000	0.125800	0.907200
H961	H96	0.069000	0.068300	0.852200
H971	H97	0.065600	0.109100	0.768300
H981	H98	0.764500	0.261600	0.713800
H991	H99	0.082800	0.194800	0.698600
H1001	H100	0.003900	0.262700	0.622500
H1011	H101	0.697900	0.314400	0.625700
H1021	H102	0.769400	0.290800	0.580700
H1031	H103	0.699200	0.426400	0.551800
H1041	H104	0.742800	0.564700	0.553000
H1051	H105	0.989400	0.575900	0.687800
H1061	H106	0.942000	0.437900	0.689600
H1071	H107	0.960500	0.704200	0.653900
H1081	H108	0.946300	0.685200	0.590800
C1191	C119	0.746400	0.755900	0.651900
C1201	C120	0.749900	0.760100	0.566700
C1211	C121	0.657300	0.801300	0.577900
C1221	C122	0.572200	0.830300	0.662500
C1231	C123	0.489700	0.884600	0.643100
C1241	C124	0.414000	0.913500	0.675300
C1251	C125	0.417700	0.887200	0.725000
C1261	C126	0.499700	0.831400	0.738900
C1271	C127	0.608900	0.767900	0.813900
C1281	C128	0.429600	0.802100	0.824000
C1291	C129	0.477700	0.766400	0.866300
C1301	C130	0.671400	0.702900	0.896000
C1311	C131	0.627900	0.607900	0.892000
C1321	C132	0.674600	0.568000	0.935000
C1331	C133	0.640600	0.481500	0.933700
C1341	C134	0.563900	0.435000	0.889200
C1351	C135	0.516300	0.474400	0.847000
C1361	C136	0.549100	0.562100	0.848500
C1371	C137	0.525300	0.340200	0.888400
C1381	C138	0.691000	0.269100	0.858800
C1391	C139	0.681000	0.264100	0.944300
C1401	C140	0.775800	0.226800	0.935100
C1411	C141	0.866900	0.194100	0.852200
C1421	C142	0.947200	0.138700	0.872800
C1431	C143	0.018700	0.106000	0.840700
C1441	C144	0.015900	0.129300	0.790500
C1451	C145	0.935000	0.184400	0.774500
C1461	C146	0.832900	0.254000	0.700900
C1471	C147	0.010700	0.216400	0.692500
C1481	C148	0.966500	0.254100	0.650300
C1491	C149	0.775600	0.319000	0.617600
C1501	C150	0.814600	0.412000	0.620100
C1511	C151	0.757500	0.454900	0.580000
C1521	C152	0.784800	0.540900	0.580500
C1531	C153	0.870900	0.588300	0.620500
C1541	C154	0.929600	0.547000	0.660400
C1551	C155	0.901700	0.460800	0.661300
C1561	C156	0.905800	0.681600	0.620100
N111	N11	0.802900	0.732100	0.613600
N121	N12	0.653400	0.797000	0.631700
N131	N13	0.576300	0.802700	0.709800
N141	N14	0.514200	0.802700	0.790400
N151	N15	0.589500	0.745100	0.859400
N161	N16	0.629700	0.291100	0.896800
N171	N17	0.782900	0.230000	0.881600
N181	N18	0.862500	0.219600	0.804200
N191	N19	0.927400	0.216800	0.724400
N201	N20	0.857200	0.277300	0.655600
