data_ZEDZAL01_clean_PM
_symmetry_space_group_name_H-M	'P1'
_cell_length_a	16.439300
_cell_length_b	16.439300
_cell_length_c	23.777000
_cell_angle_alpha	90.000000
_cell_angle_beta	90.000000
_cell_angle_gamma	120.000000
_symmetry_Int_Tables_number 1

loop_
_symmetry_equiv_pos_as_xyz
'x,y,z'

loop_
_atom_site_label
_atom_site_type_symbol
_atom_site_fract_x
_atom_site_fract_y
_atom_site_fract_z
C11	C1	0.825800	0.801300	0.037400
C21	C2	0.788300	0.696700	0.042000
C31	C3	0.832400	0.661400	0.074800
H11	H1	0.889600	0.702300	0.091600
C41	C4	0.792800	0.566300	0.082800
H21	H2	0.822900	0.543900	0.105900
C51	C5	0.706600	0.501500	0.056600
C61	C6	0.666200	0.538000	0.021300
H31	H3	0.611800	0.497100	0.001800
C71	C7	0.704800	0.634900	0.014100
H41	H4	0.675200	0.658100	0.991000
C81	C8	0.657400	0.400900	0.070400
C91	C9	0.561300	0.349700	0.069100
H51	H5	0.528500	0.379500	0.058100
C101	C10	0.356300	0.221300	0.042600
H61	H6	0.388900	0.265800	0.014800
C111	C11	0.259400	0.174100	0.043000
H71	H7	0.227100	0.188400	0.016300
O11	O1	0.891400	0.858400	0.068800
O21	O2	0.790000	0.830500	0.001600
O31	O3	0.064200	0.070500	0.045100
C121	C12	0.198700	0.024500	0.370730
C131	C13	0.303300	0.091600	0.375330
C141	C14	0.338600	0.171000	0.408130
H81	H8	0.297700	0.187300	0.424930
C151	C15	0.433700	0.226500	0.416130
H91	H9	0.456100	0.279000	0.439230
C161	C16	0.498500	0.205100	0.389930
C171	C17	0.462000	0.128200	0.354630
H101	H10	0.502900	0.114700	0.335130
C181	C18	0.365100	0.069900	0.347430
H111	H11	0.341900	0.017100	0.324330
C191	C19	0.599100	0.256500	0.403730
C201	C20	0.650300	0.211600	0.402430
H121	H12	0.620500	0.149000	0.391430
C211	C21	0.778700	0.135000	0.375930
H131	H13	0.734200	0.123100	0.348130
C221	C22	0.825900	0.085300	0.376330
H141	H14	0.811600	0.038700	0.349630
O41	O4	0.141600	0.033000	0.402130
O51	O5	0.169500	0.959500	0.334930
O61	O6	0.929500	0.993700	0.378430
C231	C23	0.975500	0.174200	0.704070
C241	C24	0.908400	0.211700	0.708670
C251	C25	0.829000	0.167600	0.741470
H151	H15	0.812700	0.110400	0.758270
C261	C26	0.773500	0.207200	0.749470
H161	H16	0.721000	0.177100	0.772570
C271	C27	0.794900	0.293400	0.723270
C281	C28	0.871800	0.333800	0.687970
H171	H17	0.885300	0.388200	0.668470
C291	C29	0.930100	0.295200	0.680770
H181	H18	0.982900	0.324800	0.657670
C301	C30	0.743500	0.342600	0.737070
C311	C31	0.788400	0.438700	0.735770
H191	H19	0.851000	0.471500	0.724770
C321	C32	0.865000	0.643700	0.709270
H201	H20	0.876900	0.611100	0.681470
C331	C33	0.914700	0.740600	0.709670
H211	H21	0.961300	0.772900	0.682970
O71	O7	0.967000	0.108600	0.735470
O81	O8	0.040500	0.210000	0.668270
O91	O9	0.006300	0.935800	0.711770
C341	C34	0.174200	0.198700	0.537400
C351	C35	0.211700	0.303300	0.542000
C361	C36	0.167600	0.338600	0.574800
H221	H22	0.110400	0.297700	0.591600
C371	C37	0.207200	0.433700	0.582800
H231	H23	0.177100	0.456100	0.605900
C381	C38	0.293400	0.498500	0.556600
C391	C39	0.333800	0.462000	0.521300
H241	H24	0.388200	0.502900	0.501800
C401	C40	0.295200	0.365100	0.514100
H251	H25	0.324800	0.341900	0.491000
C411	C41	0.342600	0.599100	0.570400
C421	C42	0.438700	0.650300	0.569100
H261	H26	0.471500	0.620500	0.558100
C431	C43	0.643700	0.778700	0.542600
H271	H27	0.611100	0.734200	0.514800
C441	C44	0.740600	0.825900	0.543000
H281	H28	0.772900	0.811600	0.516300
O101	O10	0.108600	0.141600	0.568800
O111	O11	0.210000	0.169500	0.501600
O121	O12	0.935800	0.929500	0.545100
C451	C45	0.801300	0.975500	0.870730
C461	C46	0.696700	0.908400	0.875330
C471	C47	0.661400	0.829000	0.908130
H291	H29	0.702300	0.812700	0.924930
C481	C48	0.566300	0.773500	0.916130
H301	H30	0.543900	0.721000	0.939230
C491	C49	0.501500	0.794900	0.889930
C501	C50	0.538000	0.871800	0.854630
H311	H31	0.497100	0.885300	0.835130
C511	C51	0.634900	0.930100	0.847430
H321	H32	0.658100	0.982900	0.824330
C521	C52	0.400900	0.743500	0.903730
C531	C53	0.349700	0.788400	0.902430
H331	H33	0.379500	0.851000	0.891430
C541	C54	0.221300	0.865000	0.875930
H341	H34	0.265800	0.876900	0.848130
C551	C55	0.174100	0.914700	0.876330
H351	H35	0.188400	0.961300	0.849630
O131	O13	0.858400	0.967000	0.902130
O141	O14	0.830500	0.040500	0.834930
O151	O15	0.070500	0.006300	0.878430
C561	C56	0.024500	0.825800	0.204070
C571	C57	0.091600	0.788300	0.208670
C581	C58	0.171000	0.832400	0.241470
H361	H36	0.187300	0.889600	0.258270
C591	C59	0.226500	0.792800	0.249470
H371	H37	0.279000	0.822900	0.272570
C601	C60	0.205100	0.706600	0.223270
C611	C61	0.128200	0.666200	0.187970
H381	H38	0.114700	0.611800	0.168470
C621	C62	0.069900	0.704800	0.180770
H391	H39	0.017100	0.675200	0.157670
C631	C63	0.256500	0.657400	0.237070
C641	C64	0.211600	0.561300	0.235770
H401	H40	0.149000	0.528500	0.224770
C651	C65	0.135000	0.356300	0.209270
H411	H41	0.123100	0.388900	0.181470
C661	C66	0.085300	0.259400	0.209670
H421	H42	0.038700	0.227100	0.182970
O161	O16	0.033000	0.891400	0.235470
O171	O17	0.959500	0.790000	0.168270
O181	O18	0.993700	0.064200	0.211770
C671	C67	0.801300	0.825800	0.295930
C681	C68	0.696700	0.788300	0.291330
C691	C69	0.661400	0.832400	0.258530
H431	H43	0.702300	0.889600	0.241730
C701	C70	0.566300	0.792800	0.250530
H441	H44	0.543900	0.822900	0.227430
C711	C71	0.501500	0.706600	0.276730
C721	C72	0.538000	0.666200	0.312030
H451	H45	0.497100	0.611800	0.331530
C731	C73	0.634900	0.704800	0.319230
H461	H46	0.658100	0.675200	0.342330
C741	C74	0.400900	0.657400	0.262930
C751	C75	0.349700	0.561300	0.264230
H471	H47	0.379500	0.528500	0.275230
C761	C76	0.221300	0.356300	0.290730
H481	H48	0.265800	0.388900	0.318530
C771	C77	0.174100	0.259400	0.290330
H491	H49	0.188400	0.227100	0.317030
O191	O19	0.858400	0.891400	0.264530
O201	O20	0.830500	0.790000	0.331730
O211	O21	0.070500	0.064200	0.288230
C781	C78	0.024500	0.198700	0.962600
C791	C79	0.091600	0.303300	0.958000
C801	C80	0.171000	0.338600	0.925200
H501	H50	0.187300	0.297700	0.908400
C811	C81	0.226500	0.433700	0.917200
H511	H51	0.279000	0.456100	0.894100
C821	C82	0.205100	0.498500	0.943400
C831	C83	0.128200	0.462000	0.978700
H521	H52	0.114700	0.502900	0.998200
C841	C84	0.069900	0.365100	0.985900
H531	H53	0.017100	0.341900	0.009000
C851	C85	0.256500	0.599100	0.929600
C861	C86	0.211600	0.650300	0.930900
H541	H54	0.149000	0.620500	0.941900
C871	C87	0.135000	0.778700	0.957400
H551	H55	0.123100	0.734200	0.985200
C881	C88	0.085300	0.825900	0.957000
H561	H56	0.038700	0.811600	0.983700
O221	O22	0.033000	0.141600	0.931200
O231	O23	0.959500	0.169500	0.998400
O241	O24	0.993700	0.929500	0.954900
C891	C89	0.174200	0.975500	0.629270
C901	C90	0.211700	0.908400	0.624670
C911	C91	0.167600	0.829000	0.591870
H571	H57	0.110400	0.812700	0.575070
C921	C92	0.207200	0.773500	0.583870
H581	H58	0.177100	0.721000	0.560770
C931	C93	0.293400	0.794900	0.610070
C941	C94	0.333800	0.871800	0.645370
H591	H59	0.388200	0.885300	0.664870
C951	C95	0.295200	0.930100	0.652570
H601	H60	0.324800	0.982900	0.675670
C961	C96	0.342600	0.743500	0.596270
C971	C97	0.438700	0.788400	0.597570
H611	H61	0.471500	0.851000	0.608570
C981	C98	0.643700	0.865000	0.624070
H621	H62	0.611100	0.876900	0.651870
C991	C99	0.740600	0.914700	0.623670
H631	H63	0.772900	0.961300	0.650370
O251	O25	0.108600	0.967000	0.597870
O261	O26	0.210000	0.040500	0.665070
O271	O27	0.935800	0.006300	0.621570
C1001	C100	0.198700	0.174200	0.795930
C1011	C101	0.303300	0.211700	0.791330
C1021	C102	0.338600	0.167600	0.758530
H641	H64	0.297700	0.110400	0.741730
C1031	C103	0.433700	0.207200	0.750530
H651	H65	0.456100	0.177100	0.727430
C1041	C104	0.498500	0.293400	0.776730
C1051	C105	0.462000	0.333800	0.812030
H661	H66	0.502900	0.388200	0.831530
C1061	C106	0.365100	0.295200	0.819230
H671	H67	0.341900	0.324800	0.842330
C1071	C107	0.599100	0.342600	0.762930
C1081	C108	0.650300	0.438700	0.764230
H681	H68	0.620500	0.471500	0.775230
C1091	C109	0.778700	0.643700	0.790730
H691	H69	0.734200	0.611100	0.818530
C1101	C110	0.825900	0.740600	0.790330
H701	H70	0.811600	0.772900	0.817030
O281	O28	0.141600	0.108600	0.764530
O291	O29	0.169500	0.210000	0.831730
O301	O30	0.929500	0.935800	0.788230
C1111	C111	0.975500	0.801300	0.462600
C1121	C112	0.908400	0.696700	0.458000
C1131	C113	0.829000	0.661400	0.425200
H711	H71	0.812700	0.702300	0.408400
C1141	C114	0.773500	0.566300	0.417200
H721	H72	0.721000	0.543900	0.394100
C1151	C115	0.794900	0.501500	0.443400
C1161	C116	0.871800	0.538000	0.478700
H731	H73	0.885300	0.497100	0.498200
C1171	C117	0.930100	0.634900	0.485900
H741	H74	0.982900	0.658100	0.509000
C1181	C118	0.743500	0.400900	0.429600
C1191	C119	0.788400	0.349700	0.430900
H751	H75	0.851000	0.379500	0.441900
C1201	C120	0.865000	0.221300	0.457400
H761	H76	0.876900	0.265800	0.485200
C1211	C121	0.914700	0.174100	0.457000
H771	H77	0.961300	0.188400	0.483700
O311	O31	0.967000	0.858400	0.431200
O321	O32	0.040500	0.830500	0.498400
O331	O33	0.006300	0.070500	0.454900
C1221	C122	0.825800	0.024500	0.129270
C1231	C123	0.788300	0.091600	0.124670
C1241	C124	0.832400	0.171000	0.091870
H781	H78	0.889600	0.187300	0.075070
C1251	C125	0.792800	0.226500	0.083870
H791	H79	0.822900	0.279000	0.060770
C1261	C126	0.706600	0.205100	0.110070
C1271	C127	0.666200	0.128200	0.145370
H801	H80	0.611800	0.114700	0.164870
C1281	C128	0.704800	0.069900	0.152570
H811	H81	0.675200	0.017100	0.175670
C1291	C129	0.657400	0.256500	0.096270
C1301	C130	0.561300	0.211600	0.097570
H821	H82	0.528500	0.149000	0.108570
C1311	C131	0.356300	0.135000	0.124070
H831	H83	0.388900	0.123100	0.151870
C1321	C132	0.259400	0.085300	0.123670
H841	H84	0.227100	0.038700	0.150370
O341	O34	0.891400	0.033000	0.097870
O351	O35	0.790000	0.959500	0.165070
O361	O36	0.064200	0.993700	0.121570
Pr11	Pr1	0.915670	0.000000	0.000000
Pr21	Pr2	0.000000	0.915670	0.333330
Pr31	Pr3	0.084330	0.084330	0.666670
Pr41	Pr4	0.084330	0.000000	0.500000
Pr51	Pr5	0.000000	0.084330	0.833330
Pr61	Pr6	0.915670	0.915670	0.166670
C1331	C133	0.706700	0.353350	0.083330
H851	H85	0.772000	0.386000	0.083330
C1341	C134	0.510800	0.255400	0.083330
C1351	C135	0.405500	0.202750	0.083330
C1361	C136	0.209500	0.104750	0.083330
C1371	C137	0.104100	0.052050	0.083330
C1381	C138	0.646650	0.353350	0.416670
H861	H86	0.614000	0.386000	0.416670
C1391	C139	0.744600	0.255400	0.416670
C1401	C140	0.797250	0.202750	0.416670
C1411	C141	0.895250	0.104750	0.416670
C1421	C142	0.947950	0.052050	0.416670
C1431	C143	0.646650	0.293300	0.750000
H871	H87	0.614000	0.228000	0.750000
C1441	C144	0.744600	0.489200	0.750000
C1451	C145	0.797250	0.594500	0.750000
C1461	C146	0.895250	0.790500	0.750000
C1471	C147	0.947950	0.895900	0.750000
C1481	C148	0.293300	0.646650	0.583330
H881	H88	0.228000	0.614000	0.583330
C1491	C149	0.489200	0.744600	0.583330
C1501	C150	0.594500	0.797250	0.583330
C1511	C151	0.790500	0.895250	0.583330
C1521	C152	0.895900	0.947950	0.583330
C1531	C153	0.353350	0.646650	0.916670
H891	H89	0.386000	0.614000	0.916670
C1541	C154	0.255400	0.744600	0.916670
C1551	C155	0.202750	0.797250	0.916670
C1561	C156	0.104750	0.895250	0.916670
C1571	C157	0.052050	0.947950	0.916670
C1581	C158	0.353350	0.706700	0.250000
H901	H90	0.386000	0.772000	0.250000
C1591	C159	0.255400	0.510800	0.250000
C1601	C160	0.202750	0.405500	0.250000
C1611	C161	0.104750	0.209500	0.250000
C1621	C162	0.052050	0.104100	0.250000
