data_ZEDZAL_clean_PM
_symmetry_space_group_name_H-M	'P1'
_cell_length_a	16.439300
_cell_length_b	16.439300
_cell_length_c	23.777000
_cell_angle_alpha	90.000000
_cell_angle_beta	90.000000
_cell_angle_gamma	120.000000
_symmetry_Int_Tables_number 1

loop_
_symmetry_equiv_pos_as_xyz
'x,y,z'

loop_
_atom_site_label
_atom_site_type_symbol
_atom_site_fract_x
_atom_site_fract_y
_atom_site_fract_z
Pr11	Pr1	0.084330	0.084330	0.000000
Pr21	Pr2	0.000000	0.915670	0.666670
Pr31	Pr3	0.915670	0.000000	0.333330
Pr41	Pr4	0.915670	0.915670	0.500000
Pr51	Pr5	0.000000	0.084330	0.166670
Pr61	Pr6	0.084330	0.000000	0.833330
H11	H1	0.110900	0.812100	0.909000
H21	H2	0.177700	0.722200	0.893500
H31	H3	0.386900	0.884600	0.999200
H41	H4	0.325100	0.982700	0.009000
H51	H5	0.471600	0.851000	0.942300
H61	H6	0.610900	0.879900	0.984700
H71	H7	0.773300	0.960800	0.983300
H81	H8	0.701200	0.889100	0.575670
H91	H9	0.544500	0.822300	0.560170
H101	H10	0.497700	0.613100	0.665870
H111	H11	0.657600	0.674900	0.675670
H121	H12	0.379400	0.528400	0.608970
H131	H13	0.269000	0.389100	0.651370
H141	H14	0.187500	0.226700	0.649970
H151	H15	0.187900	0.298800	0.242330
H161	H16	0.277800	0.455500	0.226830
H171	H17	0.115400	0.502300	0.332530
H181	H18	0.017300	0.342400	0.342330
H191	H19	0.149000	0.620600	0.275630
H201	H20	0.120100	0.731000	0.318030
H211	H21	0.039200	0.812500	0.316630
H221	H22	0.889100	0.187900	0.409000
H231	H23	0.822300	0.277800	0.393500
H241	H24	0.613100	0.115400	0.499200
H251	H25	0.674900	0.017300	0.509000
H261	H26	0.528400	0.149000	0.442300
H271	H27	0.389100	0.120100	0.484700
H281	H28	0.226700	0.039200	0.483300
H291	H29	0.298800	0.110900	0.075670
H301	H30	0.455500	0.177700	0.060170
H311	H31	0.502300	0.386900	0.165870
H321	H32	0.342400	0.325100	0.175670
H331	H33	0.620600	0.471600	0.108970
H341	H34	0.731000	0.610900	0.151370
H351	H35	0.812500	0.773300	0.149970
H361	H36	0.812100	0.701200	0.742330
H371	H37	0.722200	0.544500	0.726830
H381	H38	0.884600	0.497700	0.832530
H391	H39	0.982700	0.657600	0.842330
H401	H40	0.851000	0.379400	0.775630
H411	H41	0.879900	0.269000	0.818030
H421	H42	0.960800	0.187500	0.816630
H431	H43	0.298800	0.187900	0.757670
H441	H44	0.455500	0.277800	0.773170
H451	H45	0.502300	0.115400	0.667470
H461	H46	0.342400	0.017300	0.657670
H471	H47	0.620600	0.149000	0.724370
H481	H48	0.731000	0.120100	0.681970
H491	H49	0.812500	0.039200	0.683370
H501	H50	0.812100	0.110900	0.091000
H511	H51	0.722200	0.177700	0.106500
H521	H52	0.884600	0.386900	0.000800
H531	H53	0.982700	0.325100	0.991000
H541	H54	0.851000	0.471600	0.057700
H551	H55	0.879900	0.610900	0.015300
H561	H56	0.960800	0.773300	0.016700
H571	H57	0.889100	0.701200	0.424330
H581	H58	0.822300	0.544500	0.439830
H591	H59	0.613100	0.497700	0.334130
H601	H60	0.674900	0.657600	0.324330
H611	H61	0.528400	0.379400	0.391030
H621	H62	0.389100	0.269000	0.348630
H631	H63	0.226700	0.187500	0.350030
H641	H64	0.701200	0.812100	0.257670
H651	H65	0.544500	0.722200	0.273170
H661	H66	0.497700	0.884600	0.167470
H671	H67	0.657600	0.982700	0.157670
H681	H68	0.379400	0.851000	0.224370
H691	H69	0.269000	0.879900	0.181970
H701	H70	0.187500	0.960800	0.183370
H711	H71	0.187900	0.889100	0.591000
H721	H72	0.277800	0.822300	0.606500
H731	H73	0.115400	0.613100	0.500800
H741	H74	0.017300	0.674900	0.491000
H751	H75	0.149000	0.528400	0.557700
H761	H76	0.120100	0.389100	0.515300
H771	H77	0.039200	0.226700	0.516700
H781	H78	0.110900	0.298800	0.924330
H791	H79	0.177700	0.455500	0.939830
H801	H80	0.386900	0.502300	0.834130
H811	H81	0.325100	0.342400	0.824330
H821	H82	0.471600	0.620600	0.891030
H831	H83	0.610900	0.731000	0.848630
H841	H84	0.773300	0.812500	0.850030
H851	H85	0.227700	0.613850	0.916670
H861	H86	0.386150	0.772300	0.583330
H871	H87	0.386150	0.613850	0.250000
H881	H88	0.772300	0.386150	0.416670
H891	H89	0.613850	0.227700	0.083330
H901	H90	0.613850	0.386150	0.750000
C11	C1	0.175700	0.976100	0.963700
C21	C2	0.213700	0.910700	0.958500
C31	C3	0.168500	0.828900	0.925400
C41	C4	0.207200	0.774100	0.917100
C51	C5	0.293100	0.795500	0.944100
C61	C6	0.333100	0.871700	0.979300
C71	C7	0.295200	0.930200	0.985900
C81	C8	0.342100	0.743500	0.930300
C91	C9	0.438500	0.788300	0.931300
C101	C10	0.643300	0.866600	0.957600
C111	C11	0.740300	0.914400	0.956600
C121	C12	0.800400	0.824300	0.630370
C131	C13	0.697000	0.786300	0.625170
C141	C14	0.660400	0.831500	0.592070
C151	C15	0.566900	0.792800	0.583770
C161	C16	0.502400	0.706900	0.610770
C171	C17	0.538600	0.666900	0.645970
C181	C18	0.635000	0.704800	0.652570
C191	C19	0.401400	0.657900	0.596970
C201	C20	0.349800	0.561500	0.597970
C211	C21	0.223300	0.356700	0.624270
C221	C22	0.174100	0.259700	0.623270
C231	C23	0.023900	0.199600	0.297030
C241	C24	0.089300	0.303000	0.291830
C251	C25	0.171100	0.339600	0.258730
C261	C26	0.225900	0.433100	0.250430
C271	C27	0.204500	0.497600	0.277430
C281	C28	0.128300	0.461400	0.312630
C291	C29	0.069800	0.365000	0.319230
C301	C30	0.256500	0.598600	0.263630
C311	C31	0.211700	0.650200	0.264630
C321	C32	0.133400	0.776700	0.290930
C331	C33	0.085600	0.825900	0.289930
C341	C34	0.824300	0.023900	0.463700
C351	C35	0.786300	0.089300	0.458500
C361	C36	0.831500	0.171100	0.425400
C371	C37	0.792800	0.225900	0.417100
C381	C38	0.706900	0.204500	0.444100
C391	C39	0.666900	0.128300	0.479300
C401	C40	0.704800	0.069800	0.485900
C411	C41	0.657900	0.256500	0.430300
C421	C42	0.561500	0.211700	0.431300
C431	C43	0.356700	0.133400	0.457600
C441	C44	0.259700	0.085600	0.456600
C451	C45	0.199600	0.175700	0.130370
C461	C46	0.303000	0.213700	0.125170
C471	C47	0.339600	0.168500	0.092070
C481	C48	0.433100	0.207200	0.083770
C491	C49	0.497600	0.293100	0.110770
C501	C50	0.461400	0.333100	0.145970
C511	C51	0.365000	0.295200	0.152570
C521	C52	0.598600	0.342100	0.096970
C531	C53	0.650200	0.438500	0.097970
C541	C54	0.776700	0.643300	0.124270
C551	C55	0.825900	0.740300	0.123270
C561	C56	0.976100	0.800400	0.797030
C571	C57	0.910700	0.697000	0.791830
C581	C58	0.828900	0.660400	0.758730
C591	C59	0.774100	0.566900	0.750430
C601	C60	0.795500	0.502400	0.777430
C611	C61	0.871700	0.538600	0.812630
C621	C62	0.930200	0.635000	0.819230
C631	C63	0.743500	0.401400	0.763630
C641	C64	0.788300	0.349800	0.764630
C651	C65	0.866600	0.223300	0.790930
C661	C66	0.914400	0.174100	0.789930
C671	C67	0.199600	0.023900	0.702970
C681	C68	0.303000	0.089300	0.708170
C691	C69	0.339600	0.171100	0.741270
C701	C70	0.433100	0.225900	0.749570
C711	C71	0.497600	0.204500	0.722570
C721	C72	0.461400	0.128300	0.687370
C731	C73	0.365000	0.069800	0.680770
C741	C74	0.598600	0.256500	0.736370
C751	C75	0.650200	0.211700	0.735370
C761	C76	0.776700	0.133400	0.709070
C771	C77	0.825900	0.085600	0.710070
C781	C78	0.976100	0.175700	0.036300
C791	C79	0.910700	0.213700	0.041500
C801	C80	0.828900	0.168500	0.074600
C811	C81	0.774100	0.207200	0.082900
C821	C82	0.795500	0.293100	0.055900
C831	C83	0.871700	0.333100	0.020700
C841	C84	0.930200	0.295200	0.014100
C851	C85	0.743500	0.342100	0.069700
C861	C86	0.788300	0.438500	0.068700
C871	C87	0.866600	0.643300	0.042400
C881	C88	0.914400	0.740300	0.043400
C891	C89	0.824300	0.800400	0.369630
C901	C90	0.786300	0.697000	0.374830
C911	C91	0.831500	0.660400	0.407930
C921	C92	0.792800	0.566900	0.416230
C931	C93	0.706900	0.502400	0.389230
C941	C94	0.666900	0.538600	0.354030
C951	C95	0.704800	0.635000	0.347430
C961	C96	0.657900	0.401400	0.403030
C971	C97	0.561500	0.349800	0.402030
C981	C98	0.356700	0.223300	0.375730
C991	C99	0.259700	0.174100	0.376730
C1001	C100	0.800400	0.976100	0.202970
C1011	C101	0.697000	0.910700	0.208170
C1021	C102	0.660400	0.828900	0.241270
C1031	C103	0.566900	0.774100	0.249570
C1041	C104	0.502400	0.795500	0.222570
C1051	C105	0.538600	0.871700	0.187370
C1061	C106	0.635000	0.930200	0.180770
C1071	C107	0.401400	0.743500	0.236370
C1081	C108	0.349800	0.788300	0.235370
C1091	C109	0.223300	0.866600	0.209070
C1101	C110	0.174100	0.914400	0.210070
C1111	C111	0.023900	0.824300	0.536300
C1121	C112	0.089300	0.786300	0.541500
C1131	C113	0.171100	0.831500	0.574600
C1141	C114	0.225900	0.792800	0.582900
C1151	C115	0.204500	0.706900	0.555900
C1161	C116	0.128300	0.666900	0.520700
C1171	C117	0.069800	0.704800	0.514100
C1181	C118	0.256500	0.657900	0.569700
C1191	C119	0.211700	0.561500	0.568700
C1201	C120	0.133400	0.356700	0.542400
C1211	C121	0.085600	0.259700	0.543400
C1221	C122	0.175700	0.199600	0.869630
C1231	C123	0.213700	0.303000	0.874830
C1241	C124	0.168500	0.339600	0.907930
C1251	C125	0.207200	0.433100	0.916230
C1261	C126	0.293100	0.497600	0.889230
C1271	C127	0.333100	0.461400	0.854030
C1281	C128	0.295200	0.365000	0.847430
C1291	C129	0.342100	0.598600	0.903030
C1301	C130	0.438500	0.650200	0.902030
C1311	C131	0.643300	0.776700	0.875730
C1321	C132	0.740300	0.825900	0.876730
C1331	C133	0.293100	0.646550	0.916670
C1341	C134	0.488500	0.744250	0.916670
C1351	C135	0.594700	0.797350	0.916670
C1361	C136	0.789700	0.894850	0.916670
C1371	C137	0.894700	0.947350	0.916670
C1381	C138	0.353450	0.706900	0.583330
C1391	C139	0.255750	0.511500	0.583330
C1401	C140	0.202650	0.405300	0.583330
C1411	C141	0.105150	0.210300	0.583330
C1421	C142	0.052650	0.105300	0.583330
C1431	C143	0.353450	0.646550	0.250000
C1441	C144	0.255750	0.744250	0.250000
C1451	C145	0.202650	0.797350	0.250000
C1461	C146	0.105150	0.894850	0.250000
C1471	C147	0.052650	0.947350	0.250000
C1481	C148	0.706900	0.353450	0.416670
C1491	C149	0.511500	0.255750	0.416670
C1501	C150	0.405300	0.202650	0.416670
C1511	C151	0.210300	0.105150	0.416670
C1521	C152	0.105300	0.052650	0.416670
C1531	C153	0.646550	0.293100	0.083330
C1541	C154	0.744250	0.488500	0.083330
C1551	C155	0.797350	0.594700	0.083330
C1561	C156	0.894850	0.789700	0.083330
C1571	C157	0.947350	0.894700	0.083330
C1581	C158	0.646550	0.353450	0.750000
C1591	C159	0.744250	0.255750	0.750000
C1601	C160	0.797350	0.202650	0.750000
C1611	C161	0.894850	0.105150	0.750000
C1621	C162	0.947350	0.052650	0.750000
O11	O1	0.108900	0.966900	0.931640
O21	O2	0.210200	0.041000	0.997900
O31	O3	0.934800	0.005700	0.955540
O41	O4	0.858000	0.891100	0.598310
O51	O5	0.830800	0.789800	0.664570
O61	O6	0.070900	0.065200	0.622210
O71	O7	0.033100	0.142000	0.264970
O81	O8	0.959000	0.169200	0.331230
O91	O9	0.994300	0.929100	0.288870
O101	O10	0.891100	0.033100	0.431640
O111	O11	0.789800	0.959000	0.497900
O121	O12	0.065200	0.994300	0.455540
O131	O13	0.142000	0.108900	0.098310
O141	O14	0.169200	0.210200	0.164570
O151	O15	0.929100	0.934800	0.122210
O161	O16	0.966900	0.858000	0.764970
O171	O17	0.041000	0.830800	0.831230
O181	O18	0.005700	0.070900	0.788870
O191	O19	0.142000	0.033100	0.735030
O201	O20	0.169200	0.959000	0.668770
O211	O21	0.929100	0.994300	0.711130
O221	O22	0.966900	0.108900	0.068360
O231	O23	0.041000	0.210200	0.002100
O241	O24	0.005700	0.934800	0.044460
O251	O25	0.891100	0.858000	0.401690
O261	O26	0.789800	0.830800	0.335430
O271	O27	0.065200	0.070900	0.377790
O281	O28	0.858000	0.966900	0.235030
O291	O29	0.830800	0.041000	0.168770
O301	O30	0.070900	0.005700	0.211130
O311	O31	0.033100	0.891100	0.568360
O321	O32	0.959000	0.789800	0.502100
O331	O33	0.994300	0.065200	0.544460
O341	O34	0.108900	0.142000	0.901690
O351	O35	0.210200	0.169200	0.835430
O361	O36	0.934800	0.929100	0.877790
