data_ZEHCAQ01_clean_PM
_symmetry_space_group_name_H-M	'P1'
_cell_length_a	12.075500
_cell_length_b	14.888700
_cell_length_c	11.835800
_cell_angle_alpha	90.000000
_cell_angle_beta	97.719000
_cell_angle_gamma	90.000000
_symmetry_Int_Tables_number 1

loop_
_symmetry_equiv_pos_as_xyz
'x,y,z'

loop_
_atom_site_label
_atom_site_type_symbol
_atom_site_fract_x
_atom_site_fract_y
_atom_site_fract_z
Zn11	Zn1	0.795500	0.386420	0.043870
Zn21	Zn2	0.404070	0.236810	0.088930
P11	P1	0.669860	0.238300	0.155490
P21	P2	0.247870	0.411210	0.037060
O11	O1	0.734500	0.328200	0.170500
O21	O2	0.262000	0.491900	0.962800
O31	O3	0.742900	0.169500	0.102400
O41	O4	0.560700	0.251400	0.078100
O51	O5	0.651800	0.202000	0.272900
O61	O6	0.339900	0.345500	0.019500
O71	O7	0.134200	0.366500	0.012800
O81	O8	0.261100	0.445700	0.163600
H11	H1	0.253800	0.403400	0.206500
Zn31	Zn3	0.295500	0.886420	0.043870
Zn41	Zn4	0.904070	0.736810	0.088930
P31	P3	0.169860	0.738300	0.155490
P41	P4	0.747870	0.911210	0.037060
O91	O9	0.234500	0.828200	0.170500
O101	O10	0.762000	0.991900	0.962800
O111	O11	0.242900	0.669500	0.102400
O121	O12	0.060700	0.751400	0.078100
O131	O13	0.151800	0.702000	0.272900
O141	O14	0.839900	0.845500	0.019500
O151	O15	0.634200	0.866500	0.012800
O161	O16	0.761100	0.945700	0.163600
H21	H2	0.753800	0.903400	0.206500
Zn51	Zn5	0.204500	0.386420	0.456130
Zn61	Zn6	0.595930	0.236810	0.411070
P51	P5	0.330140	0.238300	0.344510
P61	P6	0.752130	0.411210	0.462940
O171	O17	0.265500	0.328200	0.329500
O181	O18	0.738000	0.491900	0.537200
O191	O19	0.257100	0.169500	0.397600
O201	O20	0.439300	0.251400	0.421900
O211	O21	0.348200	0.202000	0.227100
O221	O22	0.660100	0.345500	0.480500
O231	O23	0.865800	0.366500	0.487200
O241	O24	0.738900	0.445700	0.336400
H31	H3	0.746200	0.403400	0.293500
Zn71	Zn7	0.704500	0.886420	0.456130
Zn81	Zn8	0.095930	0.736810	0.411070
P71	P7	0.830140	0.738300	0.344510
P81	P8	0.252130	0.911210	0.462940
O251	O25	0.765500	0.828200	0.329500
O261	O26	0.238000	0.991900	0.537200
O271	O27	0.757100	0.669500	0.397600
O281	O28	0.939300	0.751400	0.421900
O291	O29	0.848200	0.702000	0.227100
O301	O30	0.160100	0.845500	0.480500
O311	O31	0.365800	0.866500	0.487200
O321	O32	0.238900	0.945700	0.336400
H41	H4	0.246200	0.903400	0.293500
Zn91	Zn9	0.204500	0.613580	0.956130
Zn101	Zn10	0.595930	0.763190	0.911070
P91	P9	0.330140	0.761700	0.844510
P101	P10	0.752130	0.588790	0.962940
O331	O33	0.265500	0.671800	0.829500
O341	O34	0.738000	0.508100	0.037200
O351	O35	0.257100	0.830500	0.897600
O361	O36	0.439300	0.748600	0.921900
O371	O37	0.348200	0.798000	0.727100
O381	O38	0.660100	0.654500	0.980500
O391	O39	0.865800	0.633500	0.987200
O401	O40	0.738900	0.554300	0.836400
H51	H5	0.746200	0.596600	0.793500
Zn111	Zn11	0.704500	0.113580	0.956130
Zn121	Zn12	0.095930	0.263190	0.911070
P111	P11	0.830140	0.261700	0.844510
P121	P12	0.252130	0.088790	0.962940
O411	O41	0.765500	0.171800	0.829500
O421	O42	0.238000	0.008100	0.037200
O431	O43	0.757100	0.330500	0.897600
O441	O44	0.939300	0.248600	0.921900
O451	O45	0.848200	0.298000	0.727100
O461	O46	0.160100	0.154500	0.980500
O471	O47	0.365800	0.133500	0.987200
O481	O48	0.238900	0.054300	0.836400
H61	H6	0.246200	0.096600	0.793500
Zn131	Zn13	0.795500	0.613580	0.543870
Zn141	Zn14	0.404070	0.763190	0.588930
P131	P13	0.669860	0.761700	0.655490
P141	P14	0.247870	0.588790	0.537060
O491	O49	0.734500	0.671800	0.670500
O501	O50	0.262000	0.508100	0.462800
O511	O51	0.742900	0.830500	0.602400
O521	O52	0.560700	0.748600	0.578100
O531	O53	0.651800	0.798000	0.772900
O541	O54	0.339900	0.654500	0.519500
O551	O55	0.134200	0.633500	0.512800
O561	O56	0.261100	0.554300	0.663600
H71	H7	0.253800	0.596600	0.706500
Zn151	Zn15	0.295500	0.113580	0.543870
Zn161	Zn16	0.904070	0.263190	0.588930
P151	P15	0.169860	0.261700	0.655490
P161	P16	0.747870	0.088790	0.537060
O571	O57	0.234500	0.171800	0.670500
O581	O58	0.762000	0.008100	0.462800
O591	O59	0.242900	0.330500	0.602400
O601	O60	0.060700	0.248600	0.578100
O611	O61	0.151800	0.298000	0.772900
O621	O62	0.839900	0.154500	0.519500
O631	O63	0.634200	0.133500	0.512800
O641	O64	0.761100	0.054300	0.663600
H81	H8	0.753800	0.096600	0.706500
