data_ZEKROY_clean_PM
_symmetry_space_group_name_H-M	'P1'
_cell_length_a	9.634800
_cell_length_b	20.822000
_cell_length_c	20.822000
_cell_angle_alpha	90.000000
_cell_angle_beta	90.000000
_cell_angle_gamma	90.000000
_symmetry_Int_Tables_number 1

loop_
_symmetry_equiv_pos_as_xyz
'x,y,z'

loop_
_atom_site_label
_atom_site_type_symbol
_atom_site_fract_x
_atom_site_fract_y
_atom_site_fract_z
K11	K1	0.138700	0.836630	0.015630
K21	K2	0.138700	0.663370	0.484370
K31	K3	0.638700	0.984370	0.336630
K41	K4	0.638700	0.515630	0.163370
K51	K5	0.861300	0.163370	0.984370
K61	K6	0.861300	0.336630	0.515630
K71	K7	0.361300	0.015630	0.663370
K81	K8	0.361300	0.484370	0.836630
H11	H1	0.779000	0.870100	0.824300
H21	H2	0.620000	0.953400	0.844700
H31	H3	0.626000	0.760100	0.955500
H41	H4	0.462000	0.838400	0.982900
H51	H5	0.119000	0.366700	0.891100
H61	H6	0.097000	0.265300	0.937600
H71	H7	0.432000	0.312900	0.785500
H81	H8	0.428000	0.205400	0.828800
H91	H9	0.884000	0.910200	0.234500
H101	H10	0.032000	0.924100	0.143900
H111	H11	0.746000	0.081200	0.212600
H121	H12	0.896000	0.108700	0.128900
H131	H13	0.779000	0.629900	0.675700
H141	H14	0.620000	0.546600	0.655300
H151	H15	0.626000	0.739900	0.544500
H161	H16	0.462000	0.661600	0.517100
H171	H17	0.119000	0.133300	0.608900
H181	H18	0.097000	0.234700	0.562400
H191	H19	0.432000	0.187100	0.714500
H201	H20	0.428000	0.294600	0.671200
H211	H21	0.884000	0.589800	0.265500
H221	H22	0.032000	0.575900	0.356100
H231	H23	0.746000	0.418800	0.287400
H241	H24	0.896000	0.391300	0.371100
H251	H25	0.279000	0.175700	0.370100
H261	H26	0.120000	0.155300	0.453400
H271	H27	0.126000	0.044500	0.260100
H281	H28	0.962000	0.017100	0.338400
H291	H29	0.619000	0.108900	0.866700
H301	H30	0.597000	0.062400	0.765300
H311	H31	0.932000	0.214500	0.812900
H321	H32	0.928000	0.171200	0.705400
H331	H33	0.384000	0.765500	0.410200
H341	H34	0.532000	0.856100	0.424100
H351	H35	0.246000	0.787400	0.581200
H361	H36	0.396000	0.871100	0.608700
H371	H37	0.279000	0.324300	0.129900
H381	H38	0.120000	0.344700	0.046600
H391	H39	0.126000	0.455500	0.239900
H401	H40	0.962000	0.482900	0.161600
H411	H41	0.619000	0.391100	0.633300
H421	H42	0.597000	0.437600	0.734700
H431	H43	0.932000	0.285500	0.687100
H441	H44	0.928000	0.328800	0.794600
H451	H45	0.384000	0.734500	0.089800
H461	H46	0.532000	0.643900	0.075900
H471	H47	0.246000	0.712600	0.918800
H481	H48	0.396000	0.628900	0.891300
H491	H49	0.221000	0.129900	0.175700
H501	H50	0.380000	0.046600	0.155300
H511	H51	0.374000	0.239900	0.044500
H521	H52	0.538000	0.161600	0.017100
H531	H53	0.881000	0.633300	0.108900
H541	H54	0.903000	0.734700	0.062400
H551	H55	0.568000	0.687100	0.214500
H561	H56	0.572000	0.794600	0.171200
H571	H57	0.116000	0.089800	0.765500
H581	H58	0.968000	0.075900	0.856100
H591	H59	0.254000	0.918800	0.787400
H601	H60	0.104000	0.891300	0.871100
H611	H61	0.221000	0.370100	0.324300
H621	H62	0.380000	0.453400	0.344700
H631	H63	0.374000	0.260100	0.455500
H641	H64	0.538000	0.338400	0.482900
H651	H65	0.881000	0.866700	0.391100
H661	H66	0.903000	0.765300	0.437600
H671	H67	0.568000	0.812900	0.285500
H681	H68	0.572000	0.705400	0.328800
H691	H69	0.116000	0.410200	0.734500
H701	H70	0.968000	0.424100	0.643900
H711	H71	0.254000	0.581200	0.712600
H721	H72	0.104000	0.608700	0.628900
H731	H73	0.721000	0.824300	0.629900
H741	H74	0.880000	0.844700	0.546600
H751	H75	0.874000	0.955500	0.739900
H761	H76	0.038000	0.982900	0.661600
H771	H77	0.381000	0.891100	0.133300
H781	H78	0.403000	0.937600	0.234700
H791	H79	0.068000	0.785500	0.187100
H801	H80	0.072000	0.828800	0.294600
H811	H81	0.616000	0.234500	0.589800
H821	H82	0.468000	0.143900	0.575900
H831	H83	0.754000	0.212600	0.418800
H841	H84	0.604000	0.128900	0.391300
H851	H85	0.721000	0.675700	0.870100
H861	H86	0.880000	0.655300	0.953400
H871	H87	0.874000	0.544500	0.760100
H881	H88	0.038000	0.517100	0.838400
H891	H89	0.381000	0.608900	0.366700
H901	H90	0.403000	0.562400	0.265300
H911	H91	0.068000	0.714500	0.312900
H921	H92	0.072000	0.671200	0.205400
H931	H93	0.616000	0.265500	0.910200
H941	H94	0.468000	0.356100	0.924100
H951	H95	0.754000	0.287400	0.081200
H961	H96	0.604000	0.371100	0.108700
C11	C1	0.521490	0.904390	0.916570
C21	C2	0.713180	0.866790	0.853960
C31	C3	0.616830	0.914390	0.867310
C41	C4	0.626960	0.801370	0.932090
C51	C5	0.526220	0.845900	0.949040
C61	C6	0.421890	0.955560	0.936110
C71	C7	0.258430	0.224410	0.886950
C81	C8	0.180740	0.333660	0.877680
C91	C9	0.167520	0.273120	0.905370
C101	C10	0.363600	0.301160	0.816580
C111	C11	0.358580	0.239320	0.841410
C121	C12	0.252860	0.159030	0.916680
C131	C13	0.982350	0.014720	0.124310
C141	C14	0.884590	0.949020	0.207110
C151	C15	0.976560	0.956280	0.156300
C161	C16	0.807480	0.051730	0.196810
C171	C17	0.895580	0.063800	0.145720
C181	C18	0.077360	0.024770	0.068840
C191	C19	0.248970	0.986350	0.004300
C201	C20	0.252100	0.046500	0.974080
C211	C21	0.345590	0.058450	0.924010
C221	C22	0.157450	0.093960	0.992570
C231	C23	0.521490	0.595610	0.583430
C241	C24	0.713180	0.633210	0.646040
C251	C25	0.616830	0.585610	0.632690
C261	C26	0.626960	0.698630	0.567910
C271	C27	0.526220	0.654100	0.550960
C281	C28	0.421890	0.544440	0.563890
C291	C29	0.258430	0.275590	0.613050
C301	C30	0.180740	0.166340	0.622320
C311	C31	0.167520	0.226880	0.594630
C321	C32	0.363600	0.198840	0.683420
C331	C33	0.358580	0.260680	0.658590
C341	C34	0.252860	0.340970	0.583320
C351	C35	0.982350	0.485280	0.375690
C361	C36	0.884590	0.550980	0.292890
C371	C37	0.976560	0.543720	0.343700
C381	C38	0.807480	0.448270	0.303190
C391	C39	0.895580	0.436200	0.354280
C401	C40	0.077360	0.475230	0.431160
C411	C41	0.248970	0.513650	0.495700
C421	C42	0.252100	0.453500	0.525920
C431	C43	0.345590	0.441550	0.575990
C441	C44	0.157450	0.406040	0.507430
C451	C45	0.021490	0.083430	0.404390
C461	C46	0.213180	0.146040	0.366790
C471	C47	0.116830	0.132690	0.414390
C481	C48	0.126960	0.067910	0.301370
C491	C49	0.026220	0.050960	0.345900
C501	C50	0.921890	0.063890	0.455560
C511	C51	0.758430	0.113050	0.724410
C521	C52	0.680740	0.122320	0.833660
C531	C53	0.667520	0.094630	0.773120
C541	C54	0.863600	0.183420	0.801160
C551	C55	0.858580	0.158590	0.739320
C561	C56	0.752860	0.083320	0.659030
C571	C57	0.482350	0.875690	0.514720
C581	C58	0.384590	0.792890	0.449020
C591	C59	0.476560	0.843700	0.456280
C601	C60	0.307480	0.803190	0.551730
C611	C61	0.395580	0.854280	0.563800
C621	C62	0.577360	0.931160	0.524770
C631	C63	0.748970	0.995700	0.486350
C641	C64	0.752100	0.025920	0.546500
C651	C65	0.845590	0.075990	0.558450
C661	C66	0.657450	0.007430	0.593960
C671	C67	0.021490	0.416570	0.095610
C681	C68	0.213180	0.353960	0.133210
C691	C69	0.116830	0.367310	0.085610
C701	C70	0.126960	0.432090	0.198630
C711	C71	0.026220	0.449040	0.154100
C721	C72	0.921890	0.436110	0.044440
C731	C73	0.758430	0.386950	0.775590
C741	C74	0.680740	0.377680	0.666340
C751	C75	0.667520	0.405370	0.726880
C761	C76	0.863600	0.316580	0.698840
C771	C77	0.858580	0.341410	0.760680
C781	C78	0.752860	0.416680	0.840970
C791	C79	0.482350	0.624310	0.985280
C801	C80	0.384590	0.707110	0.050980
C811	C81	0.476560	0.656300	0.043720
C821	C82	0.307480	0.696810	0.948270
C831	C83	0.395580	0.645720	0.936200
C841	C84	0.577360	0.568840	0.975230
C851	C85	0.748970	0.504300	0.013650
C861	C86	0.752100	0.474080	0.953500
C871	C87	0.845590	0.424010	0.941550
C881	C88	0.657450	0.492570	0.906040
C891	C89	0.478510	0.095610	0.083430
C901	C90	0.286820	0.133210	0.146040
C911	C91	0.383170	0.085610	0.132690
C921	C92	0.373040	0.198630	0.067910
C931	C93	0.473780	0.154100	0.050960
C941	C94	0.578110	0.044440	0.063890
C951	C95	0.741570	0.775590	0.113050
C961	C96	0.819260	0.666340	0.122320
C971	C97	0.832480	0.726880	0.094630
C981	C98	0.636400	0.698840	0.183420
C991	C99	0.641420	0.760680	0.158590
C1001	C100	0.747140	0.840970	0.083320
C1011	C101	0.017650	0.985280	0.875690
C1021	C102	0.115410	0.050980	0.792890
C1031	C103	0.023440	0.043720	0.843700
C1041	C104	0.192520	0.948270	0.803190
C1051	C105	0.104420	0.936200	0.854280
C1061	C106	0.922640	0.975230	0.931160
C1071	C107	0.751030	0.013650	0.995700
C1081	C108	0.747900	0.953500	0.025920
C1091	C109	0.654410	0.941550	0.075990
C1101	C110	0.842550	0.906040	0.007430
C1111	C111	0.478510	0.404390	0.416570
C1121	C112	0.286820	0.366790	0.353960
C1131	C113	0.383170	0.414390	0.367310
C1141	C114	0.373040	0.301370	0.432090
C1151	C115	0.473780	0.345900	0.449040
C1161	C116	0.578110	0.455560	0.436110
C1171	C117	0.741570	0.724410	0.386950
C1181	C118	0.819260	0.833660	0.377680
C1191	C119	0.832480	0.773120	0.405370
C1201	C120	0.636400	0.801160	0.316580
C1211	C121	0.641420	0.739320	0.341410
C1221	C122	0.747140	0.659030	0.416680
C1231	C123	0.017650	0.514720	0.624310
C1241	C124	0.115410	0.449020	0.707110
C1251	C125	0.023440	0.456280	0.656300
C1261	C126	0.192520	0.551730	0.696810
C1271	C127	0.104420	0.563800	0.645720
C1281	C128	0.922640	0.524770	0.568840
C1291	C129	0.751030	0.486350	0.504300
C1301	C130	0.747900	0.546500	0.474080
C1311	C131	0.654410	0.558450	0.424010
C1321	C132	0.842550	0.593960	0.492570
C1331	C133	0.978510	0.916570	0.595610
C1341	C134	0.786820	0.853960	0.633210
C1351	C135	0.883170	0.867310	0.585610
C1361	C136	0.873040	0.932090	0.698630
C1371	C137	0.973780	0.949040	0.654100
C1381	C138	0.078110	0.936110	0.544440
C1391	C139	0.241570	0.886950	0.275590
C1401	C140	0.319260	0.877680	0.166340
C1411	C141	0.332480	0.905370	0.226880
C1421	C142	0.136400	0.816580	0.198840
C1431	C143	0.141420	0.841410	0.260680
C1441	C144	0.247140	0.916680	0.340970
C1451	C145	0.517650	0.124310	0.485280
C1461	C146	0.615410	0.207110	0.550980
C1471	C147	0.523440	0.156300	0.543720
C1481	C148	0.692520	0.196810	0.448270
C1491	C149	0.604420	0.145720	0.436200
C1501	C150	0.422640	0.068840	0.475230
C1511	C151	0.251030	0.004300	0.513650
C1521	C152	0.247900	0.974080	0.453500
C1531	C153	0.154410	0.924010	0.441550
C1541	C154	0.342550	0.992570	0.406040
C1551	C155	0.978510	0.583430	0.904390
C1561	C156	0.786820	0.646040	0.866790
C1571	C157	0.883170	0.632690	0.914390
C1581	C158	0.873040	0.567910	0.801370
C1591	C159	0.973780	0.550960	0.845900
C1601	C160	0.078110	0.563890	0.955560
C1611	C161	0.241570	0.613050	0.224410
C1621	C162	0.319260	0.622320	0.333660
C1631	C163	0.332480	0.594630	0.273120
C1641	C164	0.136400	0.683420	0.301160
C1651	C165	0.141420	0.658590	0.239320
C1661	C166	0.247140	0.583320	0.159030
C1671	C167	0.517650	0.375690	0.014720
C1681	C168	0.615410	0.292890	0.949020
C1691	C169	0.523440	0.343700	0.956280
C1701	C170	0.692520	0.303190	0.051730
C1711	C171	0.604420	0.354280	0.063800
C1721	C172	0.422640	0.431160	0.024770
C1731	C173	0.251030	0.495700	0.986350
C1741	C174	0.247900	0.525920	0.046500
C1751	C175	0.154410	0.575990	0.058450
C1761	C176	0.342550	0.507430	0.093960
N11	N1	0.721370	0.811020	0.886010
N21	N2	0.334130	0.939110	0.983850
N31	N3	0.434120	0.011570	0.904990
N41	N4	0.276700	0.348370	0.833550
N51	N5	0.348130	0.116970	0.895550
N61	N6	0.154750	0.151190	0.961780
N71	N7	0.800640	0.995510	0.227860
N81	N8	0.067860	0.082840	0.040950
N91	N9	0.159900	0.975370	0.053450
N101	N10	0.721370	0.688980	0.613990
N111	N11	0.334130	0.560890	0.516150
N121	N12	0.434120	0.488430	0.595010
N131	N13	0.276700	0.151630	0.666450
N141	N14	0.348130	0.383030	0.604450
N151	N15	0.154750	0.348810	0.538220
N161	N16	0.800640	0.504490	0.272140
N171	N17	0.067860	0.417160	0.459050
N181	N18	0.159900	0.524630	0.446550
N191	N19	0.221370	0.113990	0.311020
N201	N20	0.834130	0.016150	0.439110
N211	N21	0.934120	0.095010	0.511570
N221	N22	0.776700	0.166450	0.848370
N231	N23	0.848130	0.104450	0.616970
N241	N24	0.654750	0.038220	0.651190
N251	N25	0.300640	0.772140	0.495510
N261	N26	0.567860	0.959050	0.582840
N271	N27	0.659900	0.946550	0.475370
N281	N28	0.221370	0.386010	0.188980
N291	N29	0.834130	0.483850	0.060890
N301	N30	0.934120	0.404990	0.988430
N311	N31	0.776700	0.333550	0.651630
N321	N32	0.848130	0.395550	0.883030
N331	N33	0.654750	0.461780	0.848810
N341	N34	0.300640	0.727860	0.004490
N351	N35	0.567860	0.540950	0.917160
N361	N36	0.659900	0.553450	0.024630
N371	N37	0.278630	0.188980	0.113990
N381	N38	0.665870	0.060890	0.016150
N391	N39	0.565880	0.988430	0.095010
N401	N40	0.723300	0.651630	0.166450
N411	N41	0.651870	0.883030	0.104450
N421	N42	0.845250	0.848810	0.038220
N431	N43	0.199360	0.004490	0.772140
N441	N44	0.932140	0.917160	0.959050
N451	N45	0.840100	0.024630	0.946550
N461	N46	0.278630	0.311020	0.386010
N471	N47	0.665870	0.439110	0.483850
N481	N48	0.565880	0.511570	0.404990
N491	N49	0.723300	0.848370	0.333550
N501	N50	0.651870	0.616970	0.395550
N511	N51	0.845250	0.651190	0.461780
N521	N52	0.199360	0.495510	0.727860
N531	N53	0.932140	0.582840	0.540950
N541	N54	0.840100	0.475370	0.553450
N551	N55	0.778630	0.886010	0.688980
N561	N56	0.165870	0.983850	0.560890
N571	N57	0.065880	0.904990	0.488430
N581	N58	0.223300	0.833550	0.151630
N591	N59	0.151870	0.895550	0.383030
N601	N60	0.345250	0.961780	0.348810
N611	N61	0.699360	0.227860	0.504490
N621	N62	0.432140	0.040950	0.417160
N631	N63	0.340100	0.053450	0.524630
N641	N64	0.778630	0.613990	0.811020
N651	N65	0.165870	0.516150	0.939110
N661	N66	0.065880	0.595010	0.011570
N671	N67	0.223300	0.666450	0.348370
N681	N68	0.151870	0.604450	0.116970
N691	N69	0.345250	0.538220	0.151190
N701	N70	0.699360	0.272140	0.995510
N711	N71	0.432140	0.459050	0.082840
N721	N72	0.340100	0.446550	0.975370
