data_ZETLER_clean_PM
_symmetry_space_group_name_H-M	'P1'
_cell_length_a	15.186900
_cell_length_b	24.158700
_cell_length_c	15.851100
_cell_angle_alpha	90.000000
_cell_angle_beta	111.141000
_cell_angle_gamma	90.000000
_symmetry_Int_Tables_number 1

loop_
_symmetry_equiv_pos_as_xyz
'x,y,z'

loop_
_atom_site_label
_atom_site_type_symbol
_atom_site_fract_x
_atom_site_fract_y
_atom_site_fract_z
Zn11	Zn1	0.573580	0.487340	0.361790
O11	O1	0.671400	0.565560	0.357000
O21	O2	0.527400	0.564220	0.357700
O31	O3	0.593400	0.824110	0.365100
O41	O4	0.870000	0.946460	0.211500
O51	O5	0.959500	0.945440	0.357400
N11	N1	0.658000	0.467820	0.488800
C11	C1	0.624000	0.449500	0.551200
H11	H1	0.558800	0.440500	0.531800
C21	C2	0.677200	0.442800	0.640900
H21	H2	0.649600	0.428800	0.681600
C31	C3	0.772800	0.456700	0.671700
C41	C4	0.808900	0.473600	0.607300
H31	H3	0.874200	0.481900	0.624800
C51	C5	0.750800	0.478600	0.518200
H41	H4	0.777600	0.490300	0.475400
C61	C6	0.827300	0.456600	0.768800
H51	H5	0.808800	0.431600	0.805600
C71	C7	0.901000	0.489200	0.808900
H61	H6	0.922700	0.511400	0.771000
C81	C8	0.951600	0.493800	0.906500
C91	C9	0.006400	0.540500	0.940900
H71	H7	0.011300	0.568500	0.900700
C101	C10	0.946300	0.453500	0.967100
H81	H8	0.909500	0.421200	0.944800
C111	C11	0.599500	0.590500	0.357000
C121	C12	0.598000	0.651900	0.357400
C131	C13	0.671700	0.680700	0.347000
H91	H9	0.722500	0.661300	0.339300
C141	C14	0.671800	0.738100	0.347900
H101	H10	0.721700	0.758000	0.339100
C151	C15	0.599300	0.766000	0.361600
C161	C16	0.524900	0.737500	0.372700
H111	H11	0.474900	0.756900	0.382000
C171	C17	0.524700	0.680600	0.369800
H121	H12	0.473600	0.660700	0.376500
C181	C18	0.884300	0.935200	0.292500
C191	C19	0.806400	0.907300	0.311200
C201	C20	0.726200	0.891600	0.242300
H131	H13	0.719600	0.899500	0.181700
C211	C21	0.654300	0.864100	0.259400
H141	H14	0.598800	0.853100	0.211100
C221	C22	0.665000	0.853100	0.347400
C231	C23	0.742000	0.869600	0.417100
H151	H15	0.746900	0.862700	0.477700
C241	C24	0.813300	0.896500	0.399500
H161	H16	0.868100	0.907800	0.448400
Zn21	Zn2	0.073580	0.987340	0.361790
O61	O6	0.171400	0.065560	0.357000
O71	O7	0.027400	0.064220	0.357700
O81	O8	0.093400	0.324110	0.365100
O91	O9	0.370000	0.446460	0.211500
O101	O10	0.459500	0.445440	0.357400
N21	N2	0.158000	0.967820	0.488800
C251	C25	0.124000	0.949500	0.551200
H171	H17	0.058800	0.940500	0.531800
C261	C26	0.177200	0.942800	0.640900
H181	H18	0.149600	0.928800	0.681600
C271	C27	0.272800	0.956700	0.671700
C281	C28	0.308900	0.973600	0.607300
H191	H19	0.374200	0.981900	0.624800
C291	C29	0.250800	0.978600	0.518200
H201	H20	0.277600	0.990300	0.475400
C301	C30	0.327300	0.956600	0.768800
H211	H21	0.308800	0.931600	0.805600
C311	C31	0.401000	0.989200	0.808900
H221	H22	0.422700	0.011400	0.771000
C321	C32	0.451600	0.993800	0.906500
C331	C33	0.506400	0.040500	0.940900
H231	H23	0.511300	0.068500	0.900700
C341	C34	0.446300	0.953500	0.967100
H241	H24	0.409500	0.921200	0.944800
C351	C35	0.099500	0.090500	0.357000
C361	C36	0.098000	0.151900	0.357400
C371	C37	0.171700	0.180700	0.347000
H251	H25	0.222500	0.161300	0.339300
C381	C38	0.171800	0.238100	0.347900
H261	H26	0.221700	0.258000	0.339100
C391	C39	0.099300	0.266000	0.361600
C401	C40	0.024900	0.237500	0.372700
H271	H27	0.974900	0.256900	0.382000
C411	C41	0.024700	0.180600	0.369800
H281	H28	0.973600	0.160700	0.376500
C421	C42	0.384300	0.435200	0.292500
C431	C43	0.306400	0.407300	0.311200
C441	C44	0.226200	0.391600	0.242300
H291	H29	0.219600	0.399500	0.181700
C451	C45	0.154300	0.364100	0.259400
H301	H30	0.098800	0.353100	0.211100
C461	C46	0.165000	0.353100	0.347400
C471	C47	0.242000	0.369600	0.417100
H311	H31	0.246900	0.362700	0.477700
C481	C48	0.313300	0.396500	0.399500
H321	H32	0.368100	0.407800	0.448400
Zn31	Zn3	0.426420	0.487340	0.138210
O111	O11	0.328600	0.565560	0.143000
O121	O12	0.472600	0.564220	0.142300
O131	O13	0.406600	0.824110	0.134900
O141	O14	0.130000	0.946460	0.288500
O151	O15	0.040500	0.945440	0.142600
N31	N3	0.342000	0.467820	0.011200
C491	C49	0.376000	0.449500	0.948800
H331	H33	0.441200	0.440500	0.968200
C501	C50	0.322800	0.442800	0.859100
H341	H34	0.350400	0.428800	0.818400
C511	C51	0.227200	0.456700	0.828300
C521	C52	0.191100	0.473600	0.892700
H351	H35	0.125800	0.481900	0.875200
C531	C53	0.249200	0.478600	0.981800
H361	H36	0.222400	0.490300	0.024600
C541	C54	0.172700	0.456600	0.731200
H371	H37	0.191200	0.431600	0.694400
C551	C55	0.099000	0.489200	0.691100
H381	H38	0.077300	0.511400	0.729000
C561	C56	0.048400	0.493800	0.593500
C571	C57	0.993600	0.540500	0.559100
H391	H39	0.988700	0.568500	0.599300
C581	C58	0.053700	0.453500	0.532900
H401	H40	0.090500	0.421200	0.555200
C591	C59	0.400500	0.590500	0.143000
C601	C60	0.402000	0.651900	0.142600
C611	C61	0.328300	0.680700	0.153000
H411	H41	0.277500	0.661300	0.160700
C621	C62	0.328200	0.738100	0.152100
H421	H42	0.278300	0.758000	0.160900
C631	C63	0.400700	0.766000	0.138400
C641	C64	0.475100	0.737500	0.127300
H431	H43	0.525100	0.756900	0.118000
C651	C65	0.475300	0.680600	0.130200
H441	H44	0.526400	0.660700	0.123500
C661	C66	0.115700	0.935200	0.207500
C671	C67	0.193600	0.907300	0.188800
C681	C68	0.273800	0.891600	0.257700
H451	H45	0.280400	0.899500	0.318300
C691	C69	0.345700	0.864100	0.240600
H461	H46	0.401200	0.853100	0.288900
C701	C70	0.335000	0.853100	0.152600
C711	C71	0.258000	0.869600	0.082900
H471	H47	0.253100	0.862700	0.022300
C721	C72	0.186700	0.896500	0.100500
H481	H48	0.131900	0.907800	0.051600
Zn41	Zn4	0.926420	0.987340	0.138210
O161	O16	0.828600	0.065560	0.143000
O171	O17	0.972600	0.064220	0.142300
O181	O18	0.906600	0.324110	0.134900
O191	O19	0.630000	0.446460	0.288500
O201	O20	0.540500	0.445440	0.142600
N41	N4	0.842000	0.967820	0.011200
C731	C73	0.876000	0.949500	0.948800
H491	H49	0.941200	0.940500	0.968200
C741	C74	0.822800	0.942800	0.859100
H501	H50	0.850400	0.928800	0.818400
C751	C75	0.727200	0.956700	0.828300
C761	C76	0.691100	0.973600	0.892700
H511	H51	0.625800	0.981900	0.875200
C771	C77	0.749200	0.978600	0.981800
H521	H52	0.722400	0.990300	0.024600
C781	C78	0.672700	0.956600	0.731200
H531	H53	0.691200	0.931600	0.694400
C791	C79	0.599000	0.989200	0.691100
H541	H54	0.577300	0.011400	0.729000
C801	C80	0.548400	0.993800	0.593500
C811	C81	0.493600	0.040500	0.559100
H551	H55	0.488700	0.068500	0.599300
C821	C82	0.553700	0.953500	0.532900
H561	H56	0.590500	0.921200	0.555200
C831	C83	0.900500	0.090500	0.143000
C841	C84	0.902000	0.151900	0.142600
C851	C85	0.828300	0.180700	0.153000
H571	H57	0.777500	0.161300	0.160700
C861	C86	0.828200	0.238100	0.152100
H581	H58	0.778300	0.258000	0.160900
C871	C87	0.900700	0.266000	0.138400
C881	C88	0.975100	0.237500	0.127300
H591	H59	0.025100	0.256900	0.118000
C891	C89	0.975300	0.180600	0.130200
H601	H60	0.026400	0.160700	0.123500
C901	C90	0.615700	0.435200	0.207500
C911	C91	0.693600	0.407300	0.188800
C921	C92	0.773800	0.391600	0.257700
H611	H61	0.780400	0.399500	0.318300
C931	C93	0.845700	0.364100	0.240600
H621	H62	0.901200	0.353100	0.288900
C941	C94	0.835000	0.353100	0.152600
C951	C95	0.758000	0.369600	0.082900
H631	H63	0.753100	0.362700	0.022300
C961	C96	0.686700	0.396500	0.100500
H641	H64	0.631900	0.407800	0.051600
Zn51	Zn5	0.426420	0.512660	0.638210
O211	O21	0.328600	0.434440	0.643000
O221	O22	0.472600	0.435780	0.642300
O231	O23	0.406600	0.175890	0.634900
O241	O24	0.130000	0.053540	0.788500
O251	O25	0.040500	0.054560	0.642600
N51	N5	0.342000	0.532180	0.511200
C971	C97	0.376000	0.550500	0.448800
H651	H65	0.441200	0.559500	0.468200
C981	C98	0.322800	0.557200	0.359100
H661	H66	0.350400	0.571200	0.318400
C991	C99	0.227200	0.543300	0.328300
C1001	C100	0.191100	0.526400	0.392700
H671	H67	0.125800	0.518100	0.375200
C1011	C101	0.249200	0.521400	0.481800
H681	H68	0.222400	0.509700	0.524600
C1021	C102	0.172700	0.543400	0.231200
H691	H69	0.191200	0.568400	0.194400
C1031	C103	0.099000	0.510800	0.191100
H701	H70	0.077300	0.488600	0.229000
C1041	C104	0.048400	0.506200	0.093500
C1051	C105	0.993600	0.459500	0.059100
H711	H71	0.988700	0.431500	0.099300
C1061	C106	0.053700	0.546500	0.032900
H721	H72	0.090500	0.578800	0.055200
C1071	C107	0.400500	0.409500	0.643000
C1081	C108	0.402000	0.348100	0.642600
C1091	C109	0.328300	0.319300	0.653000
H731	H73	0.277500	0.338700	0.660700
C1101	C110	0.328200	0.261900	0.652100
H741	H74	0.278300	0.242000	0.660900
C1111	C111	0.400700	0.234000	0.638400
C1121	C112	0.475100	0.262500	0.627300
H751	H75	0.525100	0.243100	0.618000
C1131	C113	0.475300	0.319400	0.630200
H761	H76	0.526400	0.339300	0.623500
C1141	C114	0.115700	0.064800	0.707500
C1151	C115	0.193600	0.092700	0.688800
C1161	C116	0.273800	0.108400	0.757700
H771	H77	0.280400	0.100500	0.818300
C1171	C117	0.345700	0.135900	0.740600
H781	H78	0.401200	0.146900	0.788900
C1181	C118	0.335000	0.146900	0.652600
C1191	C119	0.258000	0.130400	0.582900
H791	H79	0.253100	0.137300	0.522300
C1201	C120	0.186700	0.103500	0.600500
H801	H80	0.131900	0.092200	0.551600
Zn61	Zn6	0.926420	0.012660	0.638210
O261	O26	0.828600	0.934440	0.643000
O271	O27	0.972600	0.935780	0.642300
O281	O28	0.906600	0.675890	0.634900
O291	O29	0.630000	0.553540	0.788500
O301	O30	0.540500	0.554560	0.642600
N61	N6	0.842000	0.032180	0.511200
C1211	C121	0.876000	0.050500	0.448800
H811	H81	0.941200	0.059500	0.468200
C1221	C122	0.822800	0.057200	0.359100
H821	H82	0.850400	0.071200	0.318400
C1231	C123	0.727200	0.043300	0.328300
C1241	C124	0.691100	0.026400	0.392700
H831	H83	0.625800	0.018100	0.375200
C1251	C125	0.749200	0.021400	0.481800
H841	H84	0.722400	0.009700	0.524600
C1261	C126	0.672700	0.043400	0.231200
H851	H85	0.691200	0.068400	0.194400
C1271	C127	0.599000	0.010800	0.191100
H861	H86	0.577300	0.988600	0.229000
C1281	C128	0.548400	0.006200	0.093500
C1291	C129	0.493600	0.959500	0.059100
H871	H87	0.488700	0.931500	0.099300
C1301	C130	0.553700	0.046500	0.032900
H881	H88	0.590500	0.078800	0.055200
C1311	C131	0.900500	0.909500	0.643000
C1321	C132	0.902000	0.848100	0.642600
C1331	C133	0.828300	0.819300	0.653000
H891	H89	0.777500	0.838700	0.660700
C1341	C134	0.828200	0.761900	0.652100
H901	H90	0.778300	0.742000	0.660900
C1351	C135	0.900700	0.734000	0.638400
C1361	C136	0.975100	0.762500	0.627300
H911	H91	0.025100	0.743100	0.618000
C1371	C137	0.975300	0.819400	0.630200
H921	H92	0.026400	0.839300	0.623500
C1381	C138	0.615700	0.564800	0.707500
C1391	C139	0.693600	0.592700	0.688800
C1401	C140	0.773800	0.608400	0.757700
H931	H93	0.780400	0.600500	0.818300
C1411	C141	0.845700	0.635900	0.740600
H941	H94	0.901200	0.646900	0.788900
C1421	C142	0.835000	0.646900	0.652600
C1431	C143	0.758000	0.630400	0.582900
H951	H95	0.753100	0.637300	0.522300
C1441	C144	0.686700	0.603500	0.600500
H961	H96	0.631900	0.592200	0.551600
Zn71	Zn7	0.573580	0.512660	0.861790
O311	O31	0.671400	0.434440	0.857000
O321	O32	0.527400	0.435780	0.857700
O331	O33	0.593400	0.175890	0.865100
O341	O34	0.870000	0.053540	0.711500
O351	O35	0.959500	0.054560	0.857400
N71	N7	0.658000	0.532180	0.988800
C1451	C145	0.624000	0.550500	0.051200
H971	H97	0.558800	0.559500	0.031800
C1461	C146	0.677200	0.557200	0.140900
H981	H98	0.649600	0.571200	0.181600
C1471	C147	0.772800	0.543300	0.171700
C1481	C148	0.808900	0.526400	0.107300
H991	H99	0.874200	0.518100	0.124800
C1491	C149	0.750800	0.521400	0.018200
H1001	H100	0.777600	0.509700	0.975400
C1501	C150	0.827300	0.543400	0.268800
H1011	H101	0.808800	0.568400	0.305600
C1511	C151	0.901000	0.510800	0.308900
H1021	H102	0.922700	0.488600	0.271000
C1521	C152	0.951600	0.506200	0.406500
C1531	C153	0.006400	0.459500	0.440900
H1031	H103	0.011300	0.431500	0.400700
C1541	C154	0.946300	0.546500	0.467100
H1041	H104	0.909500	0.578800	0.444800
C1551	C155	0.599500	0.409500	0.857000
C1561	C156	0.598000	0.348100	0.857400
C1571	C157	0.671700	0.319300	0.847000
H1051	H105	0.722500	0.338700	0.839300
C1581	C158	0.671800	0.261900	0.847900
H1061	H106	0.721700	0.242000	0.839100
C1591	C159	0.599300	0.234000	0.861600
C1601	C160	0.524900	0.262500	0.872700
H1071	H107	0.474900	0.243100	0.882000
C1611	C161	0.524700	0.319400	0.869800
H1081	H108	0.473600	0.339300	0.876500
C1621	C162	0.884300	0.064800	0.792500
C1631	C163	0.806400	0.092700	0.811200
C1641	C164	0.726200	0.108400	0.742300
H1091	H109	0.719600	0.100500	0.681700
C1651	C165	0.654300	0.135900	0.759400
H1101	H110	0.598800	0.146900	0.711100
C1661	C166	0.665000	0.146900	0.847400
C1671	C167	0.742000	0.130400	0.917100
H1111	H111	0.746900	0.137300	0.977700
C1681	C168	0.813300	0.103500	0.899500
H1121	H112	0.868100	0.092200	0.948400
Zn81	Zn8	0.073580	0.012660	0.861790
O361	O36	0.171400	0.934440	0.857000
O371	O37	0.027400	0.935780	0.857700
O381	O38	0.093400	0.675890	0.865100
O391	O39	0.370000	0.553540	0.711500
O401	O40	0.459500	0.554560	0.857400
N81	N8	0.158000	0.032180	0.988800
C1691	C169	0.124000	0.050500	0.051200
H1131	H113	0.058800	0.059500	0.031800
C1701	C170	0.177200	0.057200	0.140900
H1141	H114	0.149600	0.071200	0.181600
C1711	C171	0.272800	0.043300	0.171700
C1721	C172	0.308900	0.026400	0.107300
H1151	H115	0.374200	0.018100	0.124800
C1731	C173	0.250800	0.021400	0.018200
H1161	H116	0.277600	0.009700	0.975400
C1741	C174	0.327300	0.043400	0.268800
H1171	H117	0.308800	0.068400	0.305600
C1751	C175	0.401000	0.010800	0.308900
H1181	H118	0.422700	0.988600	0.271000
C1761	C176	0.451600	0.006200	0.406500
C1771	C177	0.506400	0.959500	0.440900
H1191	H119	0.511300	0.931500	0.400700
C1781	C178	0.446300	0.046500	0.467100
H1201	H120	0.409500	0.078800	0.444800
C1791	C179	0.099500	0.909500	0.857000
C1801	C180	0.098000	0.848100	0.857400
C1811	C181	0.171700	0.819300	0.847000
H1211	H121	0.222500	0.838700	0.839300
C1821	C182	0.171800	0.761900	0.847900
H1221	H122	0.221700	0.742000	0.839100
C1831	C183	0.099300	0.734000	0.861600
C1841	C184	0.024900	0.762500	0.872700
H1231	H123	0.974900	0.743100	0.882000
C1851	C185	0.024700	0.819400	0.869800
H1241	H124	0.973600	0.839300	0.876500
C1861	C186	0.384300	0.564800	0.792500
C1871	C187	0.306400	0.592700	0.811200
C1881	C188	0.226200	0.608400	0.742300
H1251	H125	0.219600	0.600500	0.681700
C1891	C189	0.154300	0.635900	0.759400
H1261	H126	0.098800	0.646900	0.711100
C1901	C190	0.165000	0.646900	0.847400
C1911	C191	0.242000	0.630400	0.917100
H1271	H127	0.246900	0.637300	0.977700
C1921	C192	0.313300	0.603500	0.899500
H1281	H128	0.368100	0.592200	0.948400
