data_ZETPUL_clean_PM
_symmetry_space_group_name_H-M	'P1'
_cell_length_a	11.967900
_cell_length_b	19.201700
_cell_length_c	19.201700
_cell_angle_alpha	84.426800
_cell_angle_beta	71.842100
_cell_angle_gamma	71.842100
_symmetry_Int_Tables_number 1

loop_
_symmetry_equiv_pos_as_xyz
'x,y,z'

loop_
_atom_site_label
_atom_site_type_symbol
_atom_site_fract_x
_atom_site_fract_y
_atom_site_fract_z
Dy11	Dy1	0.480380	0.201100	0.637280
Dy21	Dy2	0.429800	0.021680	0.605260
Dy31	Dy3	0.818760	0.298900	0.862720
Dy41	Dy4	0.556740	0.478320	0.894740
Dy51	Dy5	0.117660	0.362720	0.701100
Dy61	Dy6	0.035060	0.394740	0.521680
Dy71	Dy7	0.681480	0.137280	0.798900
Dy81	Dy8	0.451480	0.105260	0.978320
Dy91	Dy9	0.519620	0.798900	0.362720
Dy101	Dy10	0.570200	0.978320	0.394740
Dy111	Dy11	0.181240	0.701100	0.137280
Dy121	Dy12	0.443260	0.521680	0.105260
Dy131	Dy13	0.882340	0.637280	0.298900
Dy141	Dy14	0.964940	0.605260	0.478320
Dy151	Dy15	0.318520	0.862720	0.201100
Dy161	Dy16	0.548520	0.894740	0.021680
H11	H1	0.649500	0.209500	0.438500
H21	H2	0.766200	0.143000	0.438400
H31	H3	0.799300	0.093800	0.549800
H41	H4	0.859600	0.157800	0.534600
H51	H5	0.545600	0.940100	0.774300
H61	H6	0.678500	0.913100	0.719700
H71	H7	0.461400	0.840600	0.680800
H81	H8	0.487900	0.849400	0.754000
H91	H9	0.054300	0.148800	0.670000
H101	H10	0.117300	0.099000	0.725400
H111	H11	0.099700	0.072300	0.552300
H121	H12	0.146700	0.140500	0.549100
H131	H13	0.689000	0.237800	0.530800
H141	H14	0.610900	0.886100	0.641100
H151	H15	0.170700	0.025400	0.637800
H161	H16	0.797500	0.290500	0.061500
H171	H17	0.847600	0.357000	0.061600
H181	H18	0.942900	0.406200	0.950200
H191	H19	0.052000	0.342200	0.965400
H201	H20	0.760000	0.559900	0.725700
H211	H21	0.811300	0.586900	0.780300
H221	H22	0.482800	0.659400	0.819200
H231	H23	0.591300	0.650600	0.746000
H241	H24	0.373100	0.351200	0.830000
H251	H25	0.441700	0.401000	0.774600
H261	H26	0.224300	0.427700	0.947700
H271	H27	0.336300	0.359500	0.950900
H281	H28	0.957600	0.262200	0.969200
H291	H29	0.638100	0.613900	0.858900
H301	H30	0.333900	0.474600	0.862200
H311	H31	0.088000	0.561500	0.709500
H321	H32	0.204600	0.561600	0.643000
H331	H33	0.349100	0.450200	0.593800
H341	H34	0.394200	0.465400	0.657800
H351	H35	0.319900	0.225700	0.440100
H361	H36	0.398200	0.280300	0.413100
H371	H37	0.142200	0.319200	0.340600
H381	H38	0.241900	0.246000	0.349400
H391	H39	0.724300	0.330000	0.648800
H401	H40	0.842700	0.274600	0.599000
H411	H41	0.652000	0.447700	0.572300
H421	H42	0.695800	0.450900	0.640500
H431	H43	0.219800	0.469200	0.737800
H441	H44	0.252000	0.358900	0.386100
H451	H45	0.808500	0.362200	0.525400
H461	H46	0.859000	0.938500	0.790500
H471	H47	0.909200	0.938400	0.857000
H481	H48	0.893100	0.049800	0.906200
H491	H49	0.017400	0.034600	0.842200
H501	H50	0.485700	0.274300	0.059900
H511	H51	0.591600	0.219700	0.086900
H521	H52	0.302000	0.180800	0.159400
H531	H53	0.337300	0.254000	0.150600
H541	H54	0.203100	0.170000	0.851200
H551	H55	0.216300	0.225400	0.901000
H561	H56	0.172000	0.052300	0.927700
H571	H57	0.287200	0.049100	0.859500
H581	H58	0.926800	0.030800	0.762200
H591	H59	0.497000	0.141100	0.113900
H601	H60	0.196100	0.137800	0.974600
H611	H61	0.350500	0.790500	0.561500
H621	H62	0.233800	0.857000	0.561600
H631	H63	0.200700	0.906200	0.450200
H641	H64	0.140400	0.842200	0.465400
H651	H65	0.454400	0.059900	0.225700
H661	H66	0.321500	0.086900	0.280300
H671	H67	0.538600	0.159400	0.319200
H681	H68	0.512100	0.150600	0.246000
H691	H69	0.945700	0.851200	0.330000
H701	H70	0.882700	0.901000	0.274600
H711	H71	0.900300	0.927700	0.447700
H721	H72	0.853300	0.859500	0.450900
H731	H73	0.311000	0.762200	0.469200
H741	H74	0.389100	0.113900	0.358900
H751	H75	0.829300	0.974600	0.362200
H761	H76	0.202500	0.709500	0.938500
H771	H77	0.152400	0.643000	0.938400
H781	H78	0.057100	0.593800	0.049800
H791	H79	0.948000	0.657800	0.034600
H801	H80	0.240000	0.440100	0.274300
H811	H81	0.188700	0.413100	0.219700
H821	H82	0.517200	0.340600	0.180800
H831	H83	0.408700	0.349400	0.254000
H841	H84	0.626900	0.648800	0.170000
H851	H85	0.558300	0.599000	0.225400
H861	H86	0.775700	0.572300	0.052300
H871	H87	0.663700	0.640500	0.049100
H881	H88	0.042400	0.737800	0.030800
H891	H89	0.361900	0.386100	0.141100
H901	H90	0.666100	0.525400	0.137800
H911	H91	0.912000	0.438500	0.290500
H921	H92	0.795400	0.438400	0.357000
H931	H93	0.650900	0.549800	0.406200
H941	H94	0.605800	0.534600	0.342200
H951	H95	0.680100	0.774300	0.559900
H961	H96	0.601800	0.719700	0.586900
H971	H97	0.857800	0.680800	0.659400
H981	H98	0.758100	0.754000	0.650600
H991	H99	0.275700	0.670000	0.351200
H1001	H100	0.157300	0.725400	0.401000
H1011	H101	0.348000	0.552300	0.427700
H1021	H102	0.304200	0.549100	0.359500
H1031	H103	0.780200	0.530800	0.262200
H1041	H104	0.748000	0.641100	0.613900
H1051	H105	0.191500	0.637800	0.474600
H1061	H106	0.141000	0.061500	0.209500
H1071	H107	0.090800	0.061600	0.143000
H1081	H108	0.106900	0.950200	0.093800
H1091	H109	0.982600	0.965400	0.157800
H1101	H110	0.514300	0.725700	0.940100
H1111	H111	0.408400	0.780300	0.913100
H1121	H112	0.698000	0.819200	0.840600
H1131	H113	0.662700	0.746000	0.849400
H1141	H114	0.796900	0.830000	0.148800
H1151	H115	0.783700	0.774600	0.099000
H1161	H116	0.828000	0.947700	0.072300
H1171	H117	0.712800	0.950900	0.140500
H1181	H118	0.073200	0.969200	0.237800
H1191	H119	0.503000	0.858900	0.886100
H1201	H120	0.803900	0.862200	0.025400
C11	C1	0.606000	0.115400	0.478000
C21	C2	0.682000	0.167300	0.466300
C31	C3	0.785700	0.144500	0.561100
C41	C4	0.760800	0.152500	0.642300
C51	C5	0.598000	0.023200	0.711400
C61	C6	0.595300	0.944300	0.724300
C71	C7	0.461100	0.876000	0.713600
C81	C8	0.332100	0.926700	0.742900
C91	C9	0.206500	0.173400	0.673800
C101	C10	0.132900	0.121700	0.677300
C111	C11	0.169900	0.087400	0.552200
C121	C12	0.274500	0.056000	0.486600
C131	C13	0.699400	0.384600	0.022000
C141	C14	0.815600	0.332700	0.033700
C151	C15	0.991300	0.355500	0.938900
C161	C16	0.055600	0.347500	0.857700
C171	C17	0.832600	0.476800	0.788600
C181	C18	0.763900	0.555700	0.775700
C191	C19	0.550700	0.624000	0.786400
C201	C20	0.501700	0.573300	0.757100
C211	C21	0.553700	0.326600	0.826200
C221	C22	0.431900	0.378300	0.822700
C231	C23	0.309500	0.412600	0.947800
C241	C24	0.317100	0.444000	0.013400
C251	C25	0.084000	0.522000	0.615400
C261	C26	0.148300	0.533700	0.667300
C271	C27	0.346800	0.438900	0.644500
C281	C28	0.403100	0.357700	0.652500
C291	C29	0.309400	0.288600	0.523200
C301	C30	0.319600	0.275700	0.444300
C311	C31	0.174700	0.286400	0.376000
C321	C32	0.075000	0.257100	0.426700
C331	C33	0.880300	0.326200	0.673400
C341	C34	0.810200	0.322700	0.621700
C351	C35	0.722100	0.447800	0.587400
C361	C36	0.761100	0.513400	0.556000
C371	C37	0.721400	0.978000	0.884600
C381	C38	0.849300	0.966300	0.832700
C391	C39	0.930200	0.061100	0.855500
C401	C40	0.913300	0.142300	0.847500
C411	C41	0.621200	0.211400	0.976800
C421	C42	0.539600	0.224300	0.055700
C431	C43	0.337100	0.213600	0.124000
C441	C44	0.258800	0.242900	0.073300
C451	C45	0.379900	0.173800	0.826600
C461	C46	0.254600	0.177300	0.878300
C471	C47	0.257300	0.052200	0.912600
C481	C48	0.330500	0.986600	0.944000
C491	C49	0.394000	0.884600	0.522000
C501	C50	0.318000	0.832700	0.533700
C511	C51	0.214300	0.855500	0.438900
C521	C52	0.239200	0.847500	0.357700
C531	C53	0.402000	0.976800	0.288600
C541	C54	0.404700	0.055700	0.275700
C551	C55	0.538900	0.124000	0.286400
C561	C56	0.667900	0.073300	0.257100
C571	C57	0.793500	0.826600	0.326200
C581	C58	0.867100	0.878300	0.322700
C591	C59	0.830100	0.912600	0.447800
C601	C60	0.725500	0.944000	0.513400
C611	C61	0.300600	0.615400	0.978000
C621	C62	0.184400	0.667300	0.966300
C631	C63	0.008700	0.644500	0.061100
C641	C64	0.944400	0.652500	0.142300
C651	C65	0.167400	0.523200	0.211400
C661	C66	0.236100	0.444300	0.224300
C671	C67	0.449300	0.376000	0.213600
C681	C68	0.498300	0.426700	0.242900
C691	C69	0.446300	0.673400	0.173800
C701	C70	0.568100	0.621700	0.177300
C711	C71	0.690500	0.587400	0.052200
C721	C72	0.682900	0.556000	0.986600
C731	C73	0.916000	0.478000	0.384600
C741	C74	0.851700	0.466300	0.332700
C751	C75	0.653200	0.561100	0.355500
C761	C76	0.596900	0.642300	0.347500
C771	C77	0.690600	0.711400	0.476800
C781	C78	0.680400	0.724300	0.555700
C791	C79	0.825300	0.713600	0.624000
C801	C80	0.925000	0.742900	0.573300
C811	C81	0.119700	0.673800	0.326600
C821	C82	0.189800	0.677300	0.378300
C831	C83	0.277900	0.552200	0.412600
C841	C84	0.238900	0.486600	0.444000
C851	C85	0.278600	0.022000	0.115400
C861	C86	0.150700	0.033700	0.167300
C871	C87	0.069800	0.938900	0.144500
C881	C88	0.086700	0.857700	0.152500
C891	C89	0.378800	0.788600	0.023200
C901	C90	0.460400	0.775700	0.944300
C911	C91	0.662900	0.786400	0.876000
C921	C92	0.741200	0.757100	0.926700
C931	C93	0.620100	0.826200	0.173400
C941	C94	0.745400	0.822700	0.121700
C951	C95	0.742700	0.947800	0.087400
C961	C96	0.669500	0.013400	0.056000
N11	N1	0.680100	0.192100	0.537700
N21	N2	0.546700	0.916500	0.674500
N31	N3	0.198900	0.064600	0.621200
N41	N4	0.909900	0.307900	0.962300
N51	N5	0.637700	0.583500	0.825500
N61	N6	0.384700	0.435400	0.878800
N71	N7	0.217800	0.462300	0.692100
N81	N8	0.221200	0.325500	0.416500
N91	N9	0.820100	0.378800	0.564600
N101	N10	0.872200	0.037700	0.807900
N111	N11	0.463200	0.174500	0.083500
N121	N12	0.263500	0.121200	0.935400
N131	N13	0.319900	0.807900	0.462300
N141	N14	0.453300	0.083500	0.325500
N151	N15	0.801100	0.935400	0.378800
N161	N16	0.090100	0.692100	0.037700
N171	N17	0.362300	0.416500	0.174500
N181	N18	0.615300	0.564600	0.121200
N191	N19	0.782200	0.537700	0.307900
N201	N20	0.778800	0.674500	0.583500
N211	N21	0.179900	0.621200	0.435400
N221	N22	0.127800	0.962300	0.192100
N231	N23	0.536800	0.825500	0.916500
N241	N24	0.736500	0.878800	0.064600
O11	O1	0.537600	0.109400	0.541400
O21	O2	0.611900	0.083500	0.422500
O31	O3	0.647600	0.180200	0.681200
O41	O4	0.841100	0.126200	0.673200
O51	O5	0.530200	0.064300	0.675500
O61	O6	0.664700	0.041000	0.740800
O71	O7	0.315700	0.991500	0.722100
O81	O8	0.250800	0.895800	0.776200
O91	O9	0.323900	0.147600	0.644200
O101	O10	0.153900	0.236800	0.697200
O111	O11	0.385900	0.043700	0.490100
O121	O12	0.254900	0.042300	0.430700
O131	O13	0.688400	0.390600	0.958600
O141	O14	0.617900	0.416500	0.077500
O151	O15	0.009000	0.319800	0.818800
O161	O16	0.140500	0.373800	0.826800
O171	O17	0.770000	0.435700	0.824500
O181	O18	0.946500	0.459000	0.759200
O191	O19	0.529300	0.508500	0.777900
O201	O20	0.422800	0.604200	0.723800
O211	O21	0.615700	0.352400	0.855800
O221	O22	0.587900	0.263200	0.802800
O231	O23	0.419700	0.456300	0.009900
O241	O24	0.227900	0.457700	0.069300
O251	O25	0.079000	0.458600	0.609400
O261	O26	0.034400	0.577500	0.583500
O271	O27	0.328800	0.318800	0.680200
O281	O28	0.514300	0.326800	0.626200
O291	O29	0.205700	0.324500	0.564300
O301	O30	0.405500	0.259200	0.541000
O311	O31	0.037800	0.277900	0.491500
O321	O32	0.027000	0.223800	0.395800
O331	O33	0.968100	0.355800	0.647600
O341	O34	0.851100	0.302800	0.736800
O351	O35	0.876000	0.509900	0.543700
O361	O36	0.685600	0.569300	0.542300
O371	O37	0.647000	0.041400	0.890600
O381	O38	0.695400	0.922500	0.916500
O391	O39	0.827800	0.181200	0.819800
O401	O40	0.967300	0.173200	0.873800
O411	O41	0.594500	0.175500	0.935700
O421	O42	0.705700	0.240800	0.959000
O431	O43	0.307200	0.222100	0.008500
O441	O44	0.146600	0.276200	0.104200
O451	O45	0.471500	0.144200	0.852400
O461	O46	0.390700	0.197200	0.763200
O471	O47	0.429600	0.990100	0.956300
O481	O48	0.297200	0.930700	0.957700
O491	O49	0.462400	0.890600	0.458600
O501	O50	0.388100	0.916500	0.577500
O511	O51	0.352400	0.819800	0.318800
O521	O52	0.158900	0.873800	0.326800
O531	O53	0.469800	0.935700	0.324500
O541	O54	0.335300	0.959000	0.259200
O551	O55	0.684300	0.008500	0.277900
O561	O56	0.749200	0.104200	0.223800
O571	O57	0.676100	0.852400	0.355800
O581	O58	0.846100	0.763200	0.302800
O591	O59	0.614100	0.956300	0.509900
O601	O60	0.745100	0.957700	0.569300
O611	O61	0.311600	0.609400	0.041400
O621	O62	0.382100	0.583500	0.922500
O631	O63	0.991000	0.680200	0.181200
O641	O64	0.859500	0.626200	0.173200
O651	O65	0.230000	0.564300	0.175500
O661	O66	0.053500	0.541000	0.240800
O671	O67	0.470700	0.491500	0.222100
O681	O68	0.577200	0.395800	0.276200
O691	O69	0.384300	0.647600	0.144200
O701	O70	0.412100	0.736800	0.197200
O711	O71	0.580300	0.543700	0.990100
O721	O72	0.772100	0.542300	0.930700
O731	O73	0.921000	0.541400	0.390600
O741	O74	0.965600	0.422500	0.416500
O751	O75	0.671200	0.681200	0.319800
O761	O76	0.485700	0.673200	0.373800
O771	O77	0.794300	0.675500	0.435700
O781	O78	0.594500	0.740800	0.459000
O791	O79	0.962200	0.722100	0.508500
O801	O80	0.973000	0.776200	0.604200
O811	O81	0.031900	0.644200	0.352400
O821	O82	0.148900	0.697200	0.263200
O831	O83	0.124000	0.490100	0.456300
O841	O84	0.314400	0.430700	0.457700
O851	O85	0.353000	0.958600	0.109400
O861	O86	0.304600	0.077500	0.083500
O871	O87	0.172200	0.818800	0.180200
O881	O88	0.032700	0.826800	0.126200
O891	O89	0.405500	0.824500	0.064300
O901	O90	0.294300	0.759200	0.041000
O911	O91	0.692800	0.777900	0.991500
O921	O92	0.853400	0.723800	0.895800
O931	O93	0.528500	0.855800	0.147600
O941	O94	0.609300	0.802800	0.236800
O951	O95	0.570400	0.009900	0.043700
O961	O96	0.702800	0.069300	0.042300
