data_ZEVXAB_clean_PM
_symmetry_space_group_name_H-M	'P1'
_cell_length_a	23.470000
_cell_length_b	22.051000
_cell_length_c	52.645000
_cell_angle_alpha	90.000000
_cell_angle_beta	90.000000
_cell_angle_gamma	90.000000
_symmetry_Int_Tables_number 1

loop_
_symmetry_equiv_pos_as_xyz
'x,y,z'

loop_
_atom_site_label
_atom_site_type_symbol
_atom_site_fract_x
_atom_site_fract_y
_atom_site_fract_z
Cu11	Cu1	0.464160	0.924840	0.136440
C11	C1	0.292640	0.993310	0.975580
Cu21	Cu2	0.447590	0.726080	0.103420
C21	C2	0.247500	0.949380	0.979370
C31	C3	0.244030	0.992620	0.959250
C41	C4	0.343570	0.015770	0.983360
C51	C5	0.225990	0.902050	0.992310
C61	C6	0.214570	0.018160	0.939710
C71	C7	0.442740	0.142670	0.965440
H11	H1	0.467700	0.170700	0.973400
C81	C8	0.376150	0.059280	0.968200
C91	C9	0.371650	0.059140	0.941530
H21	H2	0.348300	0.029800	0.933400
C101	C10	0.401100	0.101490	0.927010
H31	H3	0.396800	0.102100	0.909100
C111	C11	0.436750	0.142690	0.938830
C121	C12	0.467190	0.185890	0.923670
N11	N1	0.492380	0.219410	0.911700
C131	C13	0.412410	0.102170	0.979750
H41	H4	0.415800	0.102900	0.997700
C141	C14	0.365060	0.996490	0.008710
C151	C15	0.421980	0.979820	0.012410
H51	H5	0.447400	0.979700	0.998400
C161	C16	0.441730	0.963430	0.036250
H61	H6	0.480500	0.952600	0.038600
C171	C17	0.404220	0.963100	0.056520
C181	C18	0.423950	0.947920	0.081200
N21	N2	0.440530	0.936390	0.101270
C191	C19	0.346280	0.979680	0.053220
H71	H7	0.320700	0.979400	0.067200
C201	C20	0.327760	0.996230	0.029380
H81	H8	0.289100	0.007600	0.027000
C211	C21	0.258980	0.870160	0.011680
C221	C22	0.318030	0.859920	0.007780
H91	H9	0.335900	0.874000	0.992700
C231	C23	0.349870	0.829200	0.026020
H101	H10	0.389300	0.821900	0.023400
C241	C24	0.323310	0.809240	0.048110
C251	C25	0.356750	0.776390	0.066990
N31	N3	0.383280	0.752180	0.081690
C261	C26	0.264910	0.817200	0.051630
H111	H11	0.246700	0.801000	0.066200
C271	C27	0.234250	0.848370	0.034020
H121	H12	0.194900	0.855500	0.037000
C281	C28	0.167250	0.881730	0.987050
C291	C29	0.154200	0.819260	0.986240
H131	H13	0.183400	0.790300	0.989200
C301	C30	0.098900	0.799660	0.981200
H141	H14	0.090600	0.757500	0.980400
C311	C31	0.055600	0.842500	0.977360
C321	C32	0.998640	0.819800	0.973250
N41	N4	0.953350	0.803000	0.969510
C331	C33	0.068250	0.903540	0.978690
H151	H15	0.038700	0.932300	0.976200
C341	C34	0.122490	0.923600	0.983490
H161	H16	0.130000	0.965900	0.984400
C351	C35	0.163670	0.986550	0.929640
C361	C36	0.164930	0.924430	0.926500
H171	H17	0.199400	0.903100	0.929600
C371	C37	0.117000	0.892510	0.918930
H181	H18	0.118400	0.849700	0.917000
C381	C38	0.066170	0.924520	0.914090
C391	C39	0.016900	0.889970	0.908260
N51	N5	0.979900	0.856500	0.904230
C401	C40	0.064730	0.988040	0.916620
H191	H19	0.030500	0.009600	0.913300
C411	C41	0.113520	0.019170	0.923940
H201	H20	0.113100	0.062200	0.925100
C421	C42	0.232800	0.076780	0.929440
C431	C43	0.230880	0.089540	0.903080
H211	H21	0.215900	0.060200	0.891700
C441	C44	0.250390	0.143870	0.893920
H221	H22	0.249800	0.151600	0.876200
C451	C45	0.271150	0.187740	0.910550
C461	C46	0.290610	0.244620	0.901090
N61	N6	0.306020	0.291200	0.893560
C471	C47	0.272210	0.176830	0.936660
H231	H23	0.285800	0.207100	0.948000
C481	C48	0.253360	0.121700	0.945870
H241	H24	0.254300	0.114100	0.963600
C491	C49	0.696900	0.198290	0.229080
C501	C50	0.741350	0.201720	0.210570
C511	C51	0.742260	0.240510	0.232450
C521	C52	0.646150	0.173590	0.237080
C531	C53	0.765410	0.182130	0.188810
C541	C54	0.764610	0.287260	0.245650
C551	C55	0.628050	0.183040	0.263360
C561	C56	0.669030	0.187670	0.282640
H251	H25	0.708100	0.182800	0.278500
C571	C57	0.653930	0.199240	0.307640
H261	H26	0.682400	0.202800	0.320400
C581	C58	0.596890	0.205540	0.313900
C591	C59	0.579540	0.217390	0.339500
N71	N7	0.567330	0.225880	0.360230
C601	C60	0.554280	0.198890	0.295060
H271	H27	0.515100	0.201800	0.299500
C611	C61	0.570360	0.188030	0.270140
H281	H28	0.541900	0.183900	0.257400
C621	C62	0.611360	0.138970	0.219150
C631	C63	0.581830	0.086750	0.226630
H291	H29	0.583000	0.074300	0.243900
C641	C64	0.551020	0.053160	0.209340
H301	H30	0.530900	0.018100	0.214800
C651	C65	0.549490	0.070790	0.183760
C661	C66	0.519810	0.033060	0.165930
N81	N8	0.497660	0.999360	0.152480
C671	C67	0.576770	0.123840	0.176140
H311	H31	0.574000	0.137100	0.159000
C681	C68	0.607870	0.157180	0.193510
H321	H32	0.627100	0.192800	0.188100
C691	C69	0.742950	0.127670	0.176090
C701	C70	0.720500	0.079230	0.190320
H331	H33	0.723100	0.080100	0.208300
C711	C71	0.694940	0.030800	0.178540
H341	H34	0.679600	0.998400	0.188300
C721	C72	0.691670	0.029570	0.152200
C731	C73	0.662210	0.980630	0.139630
N91	N9	0.637450	0.942620	0.129520
C741	C74	0.716160	0.076340	0.137560
H351	H35	0.714600	0.074700	0.119500
C751	C75	0.742080	0.123890	0.149300
H361	H36	0.759700	0.154700	0.139400
C761	C76	0.812090	0.217860	0.177310
C771	C77	0.860740	0.191080	0.167460
H371	H37	0.864000	0.148100	0.167300
C781	C78	0.904850	0.226370	0.157870
H381	H38	0.938900	0.208000	0.151800
C791	C79	0.898320	0.289550	0.157260
C801	C80	0.944030	0.327460	0.148600
N101	N10	0.978720	0.360530	0.142120
C811	C81	0.848290	0.316680	0.166320
H391	H39	0.843400	0.359400	0.165400
C821	C82	0.806350	0.280710	0.176620
H401	H40	0.773000	0.299000	0.183400
C831	C83	0.820230	0.314410	0.238780
C841	C84	0.865910	0.276640	0.231570
H411	H41	0.861100	0.233900	0.231300
C851	C85	0.917890	0.301820	0.224830
H421	H42	0.948800	0.276500	0.220000
C861	C86	0.924290	0.363780	0.225250
C871	C87	0.977170	0.391800	0.218440
N111	N11	0.019300	0.417010	0.212400
C881	C88	0.879480	0.402350	0.232340
H431	H43	0.884300	0.445100	0.232200
C891	C89	0.827760	0.376680	0.239620
H441	H44	0.797500	0.402000	0.245200
C901	C90	0.731180	0.315380	0.266450
C911	C91	0.757210	0.333500	0.288840
H451	H45	0.797400	0.329800	0.290600
C921	C92	0.725300	0.356910	0.308740
H461	H46	0.743400	0.369100	0.324100
C931	C93	0.666280	0.362290	0.305980
C941	C94	0.631030	0.384140	0.326380
N121	N12	0.601460	0.401260	0.341960
C951	C95	0.638960	0.344840	0.283240
H471	H47	0.598900	0.349000	0.281300
C961	C96	0.672050	0.321430	0.263810
H481	H48	0.654300	0.309300	0.248400
Cu31	Cu3	0.035840	0.075160	0.636440
C971	C97	0.207360	0.006690	0.475580
Cu41	Cu4	0.052410	0.273920	0.603420
C981	C98	0.252500	0.050620	0.479370
C991	C99	0.255970	0.007380	0.459250
C1001	C100	0.156430	0.984230	0.483360
C1011	C101	0.274010	0.097950	0.492310
C1021	C102	0.285430	0.981840	0.439710
C1031	C103	0.057260	0.857330	0.465440
H491	H49	0.032300	0.829300	0.473400
C1041	C104	0.123850	0.940720	0.468200
C1051	C105	0.128350	0.940860	0.441530
H501	H50	0.151700	0.970200	0.433400
C1061	C106	0.098900	0.898510	0.427010
H511	H51	0.103200	0.897900	0.409100
C1071	C107	0.063250	0.857310	0.438830
C1081	C108	0.032810	0.814110	0.423670
N131	N13	0.007620	0.780590	0.411700
C1091	C109	0.087590	0.897830	0.479750
H521	H52	0.084200	0.897100	0.497700
C1101	C110	0.134940	0.003510	0.508710
C1111	C111	0.078020	0.020180	0.512410
H531	H53	0.052600	0.020300	0.498400
C1121	C112	0.058270	0.036570	0.536250
H541	H54	0.019500	0.047400	0.538600
C1131	C113	0.095780	0.036900	0.556520
C1141	C114	0.076050	0.052080	0.581200
N141	N14	0.059470	0.063610	0.601270
C1151	C115	0.153720	0.020320	0.553220
H551	H55	0.179300	0.020600	0.567200
C1161	C116	0.172240	0.003770	0.529380
H561	H56	0.210900	0.992400	0.527000
C1171	C117	0.241020	0.129840	0.511680
C1181	C118	0.181970	0.140080	0.507780
H571	H57	0.164100	0.126000	0.492700
C1191	C119	0.150130	0.170800	0.526020
H581	H58	0.110700	0.178100	0.523400
C1201	C120	0.176690	0.190760	0.548110
C1211	C121	0.143250	0.223610	0.566990
N151	N15	0.116720	0.247820	0.581690
C1221	C122	0.235090	0.182800	0.551630
H591	H59	0.253300	0.199000	0.566200
C1231	C123	0.265750	0.151630	0.534020
H601	H60	0.305100	0.144500	0.537000
C1241	C124	0.332750	0.118270	0.487050
C1251	C125	0.345800	0.180740	0.486240
H611	H61	0.316600	0.209700	0.489200
C1261	C126	0.401100	0.200340	0.481200
H621	H62	0.409400	0.242500	0.480400
C1271	C127	0.444400	0.157500	0.477360
C1281	C128	0.501360	0.180200	0.473250
N161	N16	0.546650	0.197000	0.469510
C1291	C129	0.431750	0.096460	0.478690
H631	H63	0.461300	0.067700	0.476200
C1301	C130	0.377510	0.076400	0.483490
H641	H64	0.370000	0.034100	0.484400
C1311	C131	0.336330	0.013450	0.429640
C1321	C132	0.335070	0.075570	0.426500
H651	H65	0.300600	0.096900	0.429600
C1331	C133	0.383000	0.107490	0.418930
H661	H66	0.381600	0.150300	0.417000
C1341	C134	0.433830	0.075480	0.414090
C1351	C135	0.483100	0.110030	0.408260
N171	N17	0.520100	0.143500	0.404230
C1361	C136	0.435270	0.011960	0.416620
H671	H67	0.469500	0.990400	0.413300
C1371	C137	0.386480	0.980830	0.423940
H681	H68	0.386900	0.937800	0.425100
C1381	C138	0.267200	0.923220	0.429440
C1391	C139	0.269120	0.910460	0.403080
H691	H69	0.284100	0.939800	0.391700
C1401	C140	0.249610	0.856130	0.393920
H701	H70	0.250200	0.848400	0.376200
C1411	C141	0.228850	0.812260	0.410550
C1421	C142	0.209390	0.755380	0.401090
N181	N18	0.193980	0.708800	0.393560
C1431	C143	0.227790	0.823170	0.436660
H711	H71	0.214200	0.792900	0.448000
C1441	C144	0.246640	0.878300	0.445870
H721	H72	0.245700	0.885900	0.463600
C1451	C145	0.803100	0.801710	0.729080
C1461	C146	0.758650	0.798280	0.710570
C1471	C147	0.757740	0.759490	0.732450
C1481	C148	0.853850	0.826410	0.737080
C1491	C149	0.734590	0.817870	0.688810
C1501	C150	0.735390	0.712740	0.745650
C1511	C151	0.871950	0.816960	0.763360
C1521	C152	0.830970	0.812330	0.782640
H731	H73	0.791900	0.817200	0.778500
C1531	C153	0.846070	0.800760	0.807640
H741	H74	0.817600	0.797200	0.820400
C1541	C154	0.903110	0.794460	0.813900
C1551	C155	0.920460	0.782610	0.839500
N191	N19	0.932670	0.774120	0.860230
C1561	C156	0.945720	0.801110	0.795060
H751	H75	0.984900	0.798200	0.799500
C1571	C157	0.929640	0.811970	0.770140
H761	H76	0.958100	0.816100	0.757400
C1581	C158	0.888640	0.861030	0.719150
C1591	C159	0.918170	0.913250	0.726630
H771	H77	0.917000	0.925700	0.743900
C1601	C160	0.948980	0.946840	0.709340
H781	H78	0.969100	0.981900	0.714800
C1611	C161	0.950510	0.929210	0.683760
C1621	C162	0.980190	0.966940	0.665930
N201	N20	0.002340	0.000640	0.652480
C1631	C163	0.923230	0.876160	0.676140
H791	H79	0.926000	0.862900	0.659000
C1641	C164	0.892130	0.842820	0.693510
H801	H80	0.872900	0.807200	0.688100
C1651	C165	0.757050	0.872330	0.676090
C1661	C166	0.779500	0.920770	0.690320
H811	H81	0.776900	0.919900	0.708300
C1671	C167	0.805060	0.969200	0.678540
H821	H82	0.820400	0.001600	0.688300
C1681	C168	0.808330	0.970430	0.652200
C1691	C169	0.837790	0.019370	0.639630
N211	N21	0.862550	0.057380	0.629520
C1701	C170	0.783840	0.923660	0.637560
H831	H83	0.785400	0.925300	0.619500
C1711	C171	0.757920	0.876110	0.649300
H841	H84	0.740300	0.845300	0.639400
C1721	C172	0.687910	0.782140	0.677310
C1731	C173	0.639260	0.808920	0.667460
H851	H85	0.636000	0.851900	0.667300
C1741	C174	0.595150	0.773630	0.657870
H861	H86	0.561100	0.792000	0.651800
C1751	C175	0.601680	0.710450	0.657260
C1761	C176	0.555970	0.672540	0.648600
N221	N22	0.521280	0.639470	0.642120
C1771	C177	0.651710	0.683320	0.666320
H871	H87	0.656600	0.640600	0.665400
C1781	C178	0.693650	0.719290	0.676620
H881	H88	0.727000	0.701000	0.683400
C1791	C179	0.679770	0.685590	0.738780
C1801	C180	0.634090	0.723360	0.731570
H891	H89	0.638900	0.766100	0.731300
C1811	C181	0.582110	0.698180	0.724830
H901	H90	0.551200	0.723500	0.720000
C1821	C182	0.575710	0.636220	0.725250
C1831	C183	0.522830	0.608200	0.718440
N231	N23	0.480700	0.582990	0.712400
C1841	C184	0.620520	0.597650	0.732340
H911	H91	0.615700	0.554900	0.732200
C1851	C185	0.672240	0.623320	0.739620
H921	H92	0.702500	0.598000	0.745200
C1861	C186	0.768820	0.684620	0.766450
C1871	C187	0.742790	0.666500	0.788840
H931	H93	0.702600	0.670200	0.790600
C1881	C188	0.774700	0.643090	0.808740
H941	H94	0.756600	0.630900	0.824100
C1891	C189	0.833720	0.637710	0.805980
C1901	C190	0.868970	0.615860	0.826380
N241	N24	0.898540	0.598740	0.841960
C1911	C191	0.861040	0.655160	0.783240
H951	H95	0.901100	0.651000	0.781300
C1921	C192	0.827950	0.678570	0.763810
H961	H96	0.845700	0.690700	0.748400
Cu51	Cu5	0.535840	0.424840	0.363560
C1931	C193	0.707360	0.493310	0.524420
Cu61	Cu6	0.552410	0.226080	0.396580
C1941	C194	0.752500	0.449380	0.520630
C1951	C195	0.755970	0.492620	0.540750
C1961	C196	0.656430	0.515770	0.516640
C1971	C197	0.774010	0.402050	0.507690
C1981	C198	0.785430	0.518160	0.560290
C1991	C199	0.557260	0.642670	0.534560
H971	H97	0.532300	0.670700	0.526600
C2001	C200	0.623850	0.559280	0.531800
C2011	C201	0.628350	0.559140	0.558470
H981	H98	0.651700	0.529800	0.566600
C2021	C202	0.598900	0.601490	0.572990
H991	H99	0.603200	0.602100	0.590900
C2031	C203	0.563250	0.642690	0.561170
C2041	C204	0.532810	0.685890	0.576330
N251	N25	0.507620	0.719410	0.588300
C2051	C205	0.587590	0.602170	0.520250
H1001	H100	0.584200	0.602900	0.502300
C2061	C206	0.634940	0.496490	0.491290
C2071	C207	0.578020	0.479820	0.487590
H1011	H101	0.552600	0.479700	0.501600
C2081	C208	0.558270	0.463430	0.463750
H1021	H102	0.519500	0.452600	0.461400
C2091	C209	0.595780	0.463100	0.443480
C2101	C210	0.576050	0.447920	0.418800
N261	N26	0.559470	0.436390	0.398730
C2111	C211	0.653720	0.479680	0.446780
H1031	H103	0.679300	0.479400	0.432800
C2121	C212	0.672240	0.496230	0.470620
H1041	H104	0.710900	0.507600	0.473000
C2131	C213	0.741020	0.370160	0.488320
C2141	C214	0.681970	0.359920	0.492220
H1051	H105	0.664100	0.374000	0.507300
C2151	C215	0.650130	0.329200	0.473980
H1061	H106	0.610700	0.321900	0.476600
C2161	C216	0.676690	0.309240	0.451890
C2171	C217	0.643250	0.276390	0.433010
N271	N27	0.616720	0.252180	0.418310
C2181	C218	0.735090	0.317200	0.448370
H1071	H107	0.753300	0.301000	0.433800
C2191	C219	0.765750	0.348370	0.465980
H1081	H108	0.805100	0.355500	0.463000
C2201	C220	0.832750	0.381730	0.512950
C2211	C221	0.845800	0.319260	0.513760
H1091	H109	0.816600	0.290300	0.510800
C2221	C222	0.901100	0.299660	0.518800
H1101	H110	0.909400	0.257500	0.519600
C2231	C223	0.944400	0.342500	0.522640
C2241	C224	0.001360	0.319800	0.526750
N281	N28	0.046650	0.303000	0.530490
C2251	C225	0.931750	0.403540	0.521310
H1111	H111	0.961300	0.432300	0.523800
C2261	C226	0.877510	0.423600	0.516510
H1121	H112	0.870000	0.465900	0.515600
C2271	C227	0.836330	0.486550	0.570360
C2281	C228	0.835070	0.424430	0.573500
H1131	H113	0.800600	0.403100	0.570400
C2291	C229	0.883000	0.392510	0.581070
H1141	H114	0.881600	0.349700	0.583000
C2301	C230	0.933830	0.424520	0.585910
C2311	C231	0.983100	0.389970	0.591740
N291	N29	0.020100	0.356500	0.595770
C2321	C232	0.935270	0.488040	0.583380
H1151	H115	0.969500	0.509600	0.586700
C2331	C233	0.886480	0.519170	0.576060
H1161	H116	0.886900	0.562200	0.574900
C2341	C234	0.767200	0.576780	0.570560
C2351	C235	0.769120	0.589540	0.596920
H1171	H117	0.784100	0.560200	0.608300
C2361	C236	0.749610	0.643870	0.606080
H1181	H118	0.750200	0.651600	0.623800
C2371	C237	0.728850	0.687740	0.589450
C2381	C238	0.709390	0.744620	0.598910
N301	N30	0.693980	0.791200	0.606440
C2391	C239	0.727790	0.676830	0.563340
H1191	H119	0.714200	0.707100	0.552000
C2401	C240	0.746640	0.621700	0.554130
H1201	H120	0.745700	0.614100	0.536400
C2411	C241	0.303100	0.698290	0.270920
C2421	C242	0.258650	0.701720	0.289430
C2431	C243	0.257740	0.740510	0.267550
C2441	C244	0.353850	0.673590	0.262920
C2451	C245	0.234590	0.682130	0.311190
C2461	C246	0.235390	0.787260	0.254350
C2471	C247	0.371950	0.683040	0.236640
C2481	C248	0.330970	0.687670	0.217360
H1211	H121	0.291900	0.682800	0.221500
C2491	C249	0.346070	0.699240	0.192360
H1221	H122	0.317600	0.702800	0.179600
C2501	C250	0.403110	0.705540	0.186100
C2511	C251	0.420460	0.717390	0.160500
N311	N31	0.432670	0.725880	0.139770
C2521	C252	0.445720	0.698890	0.204940
H1231	H123	0.484900	0.701800	0.200500
C2531	C253	0.429640	0.688030	0.229860
H1241	H124	0.458100	0.683900	0.242600
C2541	C254	0.388640	0.638970	0.280850
C2551	C255	0.418170	0.586750	0.273370
H1251	H125	0.417000	0.574300	0.256100
C2561	C256	0.448980	0.553160	0.290660
H1261	H126	0.469100	0.518100	0.285200
C2571	C257	0.450510	0.570790	0.316240
C2581	C258	0.480190	0.533060	0.334070
N321	N32	0.502340	0.499360	0.347520
C2591	C259	0.423230	0.623840	0.323860
H1271	H127	0.426000	0.637100	0.341000
C2601	C260	0.392130	0.657180	0.306490
H1281	H128	0.372900	0.692800	0.311900
C2611	C261	0.257050	0.627670	0.323910
C2621	C262	0.279500	0.579230	0.309680
H1291	H129	0.276900	0.580100	0.291700
C2631	C263	0.305060	0.530800	0.321460
H1301	H130	0.320400	0.498400	0.311700
C2641	C264	0.308330	0.529570	0.347800
C2651	C265	0.337790	0.480630	0.360370
N331	N33	0.362550	0.442620	0.370480
C2661	C266	0.283840	0.576340	0.362440
H1311	H131	0.285400	0.574700	0.380500
C2671	C267	0.257920	0.623890	0.350700
H1321	H132	0.240300	0.654700	0.360600
C2681	C268	0.187910	0.717860	0.322690
C2691	C269	0.139260	0.691080	0.332540
H1331	H133	0.136000	0.648100	0.332700
C2701	C270	0.095150	0.726370	0.342130
H1341	H134	0.061100	0.708000	0.348200
C2711	C271	0.101680	0.789550	0.342740
C2721	C272	0.055970	0.827460	0.351400
N341	N34	0.021280	0.860530	0.357880
C2731	C273	0.151710	0.816680	0.333680
H1351	H135	0.156600	0.859400	0.334600
C2741	C274	0.193650	0.780710	0.323380
H1361	H136	0.227000	0.799000	0.316600
C2751	C275	0.179770	0.814410	0.261220
C2761	C276	0.134090	0.776640	0.268430
H1371	H137	0.138900	0.733900	0.268700
C2771	C277	0.082110	0.801820	0.275170
H1381	H138	0.051200	0.776500	0.280000
C2781	C278	0.075710	0.863780	0.274750
C2791	C279	0.022830	0.891800	0.281560
N351	N35	0.980700	0.917010	0.287600
C2801	C280	0.120520	0.902350	0.267660
H1391	H139	0.115700	0.945100	0.267800
C2811	C281	0.172240	0.876680	0.260380
H1401	H140	0.202500	0.902000	0.254800
C2821	C282	0.268820	0.815380	0.233550
C2831	C283	0.242790	0.833500	0.211160
H1411	H141	0.202600	0.829800	0.209400
C2841	C284	0.274700	0.856910	0.191260
H1421	H142	0.256600	0.869100	0.175900
C2851	C285	0.333720	0.862290	0.194020
C2861	C286	0.368970	0.884140	0.173620
N361	N36	0.398540	0.901260	0.158040
C2871	C287	0.361040	0.844840	0.216760
H1431	H143	0.401100	0.849000	0.218700
C2881	C288	0.327950	0.821430	0.236190
H1441	H144	0.345700	0.809300	0.251600
Cu71	Cu7	0.964160	0.575160	0.863560
C2891	C289	0.792640	0.506690	0.024420
Cu81	Cu8	0.947590	0.773920	0.896580
C2901	C290	0.747500	0.550620	0.020630
C2911	C291	0.744030	0.507380	0.040750
C2921	C292	0.843570	0.484230	0.016640
C2931	C293	0.725990	0.597950	0.007690
C2941	C294	0.714570	0.481840	0.060290
C2951	C295	0.942740	0.357330	0.034560
H1451	H145	0.967700	0.329300	0.026600
C2961	C296	0.876150	0.440720	0.031800
C2971	C297	0.871650	0.440860	0.058470
H1461	H146	0.848300	0.470200	0.066600
C2981	C298	0.901100	0.398510	0.072990
H1471	H147	0.896800	0.397900	0.090900
C2991	C299	0.936750	0.357310	0.061170
C3001	C300	0.967190	0.314110	0.076330
N371	N37	0.992380	0.280590	0.088300
C3011	C301	0.912410	0.397830	0.020250
H1481	H148	0.915800	0.397100	0.002300
C3021	C302	0.865060	0.503510	0.991290
C3031	C303	0.921980	0.520180	0.987590
H1491	H149	0.947400	0.520300	0.001600
C3041	C304	0.941730	0.536570	0.963750
H1501	H150	0.980500	0.547400	0.961400
C3051	C305	0.904220	0.536900	0.943480
C3061	C306	0.923950	0.552080	0.918800
N381	N38	0.940530	0.563610	0.898730
C3071	C307	0.846280	0.520320	0.946780
H1511	H151	0.820700	0.520600	0.932800
C3081	C308	0.827760	0.503770	0.970620
H1521	H152	0.789100	0.492400	0.973000
C3091	C309	0.758980	0.629840	0.988320
C3101	C310	0.818030	0.640080	0.992220
H1531	H153	0.835900	0.626000	0.007300
C3111	C311	0.849870	0.670800	0.973980
H1541	H154	0.889300	0.678100	0.976600
C3121	C312	0.823310	0.690760	0.951890
C3131	C313	0.856750	0.723610	0.933010
N391	N39	0.883280	0.747820	0.918310
C3141	C314	0.764910	0.682800	0.948370
H1551	H155	0.746700	0.699000	0.933800
C3151	C315	0.734250	0.651630	0.965980
H1561	H156	0.694900	0.644500	0.963000
C3161	C316	0.667250	0.618270	0.012950
C3171	C317	0.654200	0.680740	0.013760
H1571	H157	0.683400	0.709700	0.010800
C3181	C318	0.598900	0.700340	0.018800
H1581	H158	0.590600	0.742500	0.019600
C3191	C319	0.555600	0.657500	0.022640
C3201	C320	0.498640	0.680200	0.026750
N401	N40	0.453350	0.697000	0.030490
C3211	C321	0.568250	0.596460	0.021310
H1591	H159	0.538700	0.567700	0.023800
C3221	C322	0.622490	0.576400	0.016510
H1601	H160	0.630000	0.534100	0.015600
C3231	C323	0.663670	0.513450	0.070360
C3241	C324	0.664930	0.575570	0.073500
H1611	H161	0.699400	0.596900	0.070400
C3251	C325	0.617000	0.607490	0.081070
H1621	H162	0.618400	0.650300	0.083000
C3261	C326	0.566170	0.575480	0.085910
C3271	C327	0.516900	0.610030	0.091740
N411	N41	0.479900	0.643500	0.095770
C3281	C328	0.564730	0.511960	0.083380
H1631	H163	0.530500	0.490400	0.086700
C3291	C329	0.613520	0.480830	0.076060
H1641	H164	0.613100	0.437800	0.074900
C3301	C330	0.732800	0.423220	0.070560
C3311	C331	0.730880	0.410460	0.096920
H1651	H165	0.715900	0.439800	0.108300
C3321	C332	0.750390	0.356130	0.106080
H1661	H166	0.749800	0.348400	0.123800
C3331	C333	0.771150	0.312260	0.089450
C3341	C334	0.790610	0.255380	0.098910
N421	N42	0.806020	0.208800	0.106440
C3351	C335	0.772210	0.323170	0.063340
H1671	H167	0.785800	0.292900	0.052000
C3361	C336	0.753360	0.378300	0.054130
H1681	H168	0.754300	0.385900	0.036400
C3371	C337	0.196900	0.301710	0.770920
C3381	C338	0.241350	0.298280	0.789430
C3391	C339	0.242260	0.259490	0.767550
C3401	C340	0.146150	0.326410	0.762920
C3411	C341	0.265410	0.317870	0.811190
C3421	C342	0.264610	0.212740	0.754350
C3431	C343	0.128050	0.316960	0.736640
C3441	C344	0.169030	0.312330	0.717360
H1691	H169	0.208100	0.317200	0.721500
C3451	C345	0.153930	0.300760	0.692360
H1701	H170	0.182400	0.297200	0.679600
C3461	C346	0.096890	0.294460	0.686100
C3471	C347	0.079540	0.282610	0.660500
N431	N43	0.067330	0.274120	0.639770
C3481	C348	0.054280	0.301110	0.704940
H1711	H171	0.015100	0.298200	0.700500
C3491	C349	0.070360	0.311970	0.729860
H1721	H172	0.041900	0.316100	0.742600
C3501	C350	0.111360	0.361030	0.780850
C3511	C351	0.081830	0.413250	0.773370
H1731	H173	0.083000	0.425700	0.756100
C3521	C352	0.051020	0.446840	0.790660
H1741	H174	0.030900	0.481900	0.785200
C3531	C353	0.049490	0.429210	0.816240
C3541	C354	0.019810	0.466940	0.834070
N441	N44	0.997660	0.500640	0.847520
C3551	C355	0.076770	0.376160	0.823860
H1751	H175	0.074000	0.362900	0.841000
C3561	C356	0.107870	0.342820	0.806490
H1761	H176	0.127100	0.307200	0.811900
C3571	C357	0.242950	0.372330	0.823910
C3581	C358	0.220500	0.420770	0.809680
H1771	H177	0.223100	0.419900	0.791700
C3591	C359	0.194940	0.469200	0.821460
H1781	H178	0.179600	0.501600	0.811700
C3601	C360	0.191670	0.470430	0.847800
C3611	C361	0.162210	0.519370	0.860370
N451	N45	0.137450	0.557380	0.870480
C3621	C362	0.216160	0.423660	0.862440
H1791	H179	0.214600	0.425300	0.880500
C3631	C363	0.242080	0.376110	0.850700
H1801	H180	0.259700	0.345300	0.860600
C3641	C364	0.312090	0.282140	0.822690
C3651	C365	0.360740	0.308920	0.832540
H1811	H181	0.364000	0.351900	0.832700
C3661	C366	0.404850	0.273630	0.842130
H1821	H182	0.438900	0.292000	0.848200
C3671	C367	0.398320	0.210450	0.842740
C3681	C368	0.444030	0.172540	0.851400
N461	N46	0.478720	0.139470	0.857880
C3691	C369	0.348290	0.183320	0.833680
H1831	H183	0.343400	0.140600	0.834600
C3701	C370	0.306350	0.219290	0.823380
H1841	H184	0.273000	0.201000	0.816600
C3711	C371	0.320230	0.185590	0.761220
C3721	C372	0.365910	0.223360	0.768430
H1851	H185	0.361100	0.266100	0.768700
C3731	C373	0.417890	0.198180	0.775170
H1861	H186	0.448800	0.223500	0.780000
C3741	C374	0.424290	0.136220	0.774750
C3751	C375	0.477170	0.108200	0.781560
N471	N47	0.519300	0.082990	0.787600
C3761	C376	0.379480	0.097650	0.767660
H1871	H187	0.384300	0.054900	0.767800
C3771	C377	0.327760	0.123320	0.760380
H1881	H188	0.297500	0.098000	0.754800
C3781	C378	0.231180	0.184620	0.733550
C3791	C379	0.257210	0.166500	0.711160
H1891	H189	0.297400	0.170200	0.709400
C3801	C380	0.225300	0.143090	0.691260
H1901	H190	0.243400	0.130900	0.675900
C3811	C381	0.166280	0.137710	0.694020
C3821	C382	0.131030	0.115860	0.673620
N481	N48	0.101460	0.098740	0.658040
C3831	C383	0.138960	0.155160	0.716760
H1911	H191	0.098900	0.151000	0.718700
C3841	C384	0.172050	0.178570	0.736190
H1921	H192	0.154300	0.190700	0.751600
Cu91	Cu9	0.535840	0.075160	0.863560
C3851	C385	0.707360	0.006690	0.024420
Cu101	Cu10	0.552410	0.273920	0.896580
C3861	C386	0.752500	0.050620	0.020630
C3871	C387	0.755970	0.007380	0.040750
C3881	C388	0.656430	0.984230	0.016640
C3891	C389	0.774010	0.097950	0.007690
C3901	C390	0.785430	0.981840	0.060290
C3911	C391	0.557260	0.857330	0.034560
H1931	H193	0.532300	0.829300	0.026600
C3921	C392	0.623850	0.940720	0.031800
C3931	C393	0.628350	0.940860	0.058470
H1941	H194	0.651700	0.970200	0.066600
C3941	C394	0.598900	0.898510	0.072990
H1951	H195	0.603200	0.897900	0.090900
C3951	C395	0.563250	0.857310	0.061170
C3961	C396	0.532810	0.814110	0.076330
N491	N49	0.507620	0.780590	0.088300
C3971	C397	0.587590	0.897830	0.020250
H1961	H196	0.584200	0.897100	0.002300
C3981	C398	0.634940	0.003510	0.991290
C3991	C399	0.578020	0.020180	0.987590
H1971	H197	0.552600	0.020300	0.001600
C4001	C400	0.558270	0.036570	0.963750
H1981	H198	0.519500	0.047400	0.961400
C4011	C401	0.595780	0.036900	0.943480
C4021	C402	0.576050	0.052080	0.918800
N501	N50	0.559470	0.063610	0.898730
C4031	C403	0.653720	0.020320	0.946780
H1991	H199	0.679300	0.020600	0.932800
C4041	C404	0.672240	0.003770	0.970620
H2001	H200	0.710900	0.992400	0.973000
C4051	C405	0.741020	0.129840	0.988320
C4061	C406	0.681970	0.140080	0.992220
H2011	H201	0.664100	0.126000	0.007300
C4071	C407	0.650130	0.170800	0.973980
H2021	H202	0.610700	0.178100	0.976600
C4081	C408	0.676690	0.190760	0.951890
C4091	C409	0.643250	0.223610	0.933010
N511	N51	0.616720	0.247820	0.918310
C4101	C410	0.735090	0.182800	0.948370
H2031	H203	0.753300	0.199000	0.933800
C4111	C411	0.765750	0.151630	0.965980
H2041	H204	0.805100	0.144500	0.963000
C4121	C412	0.832750	0.118270	0.012950
C4131	C413	0.845800	0.180740	0.013760
H2051	H205	0.816600	0.209700	0.010800
C4141	C414	0.901100	0.200340	0.018800
H2061	H206	0.909400	0.242500	0.019600
C4151	C415	0.944400	0.157500	0.022640
C4161	C416	0.001360	0.180200	0.026750
N521	N52	0.046650	0.197000	0.030490
C4171	C417	0.931750	0.096460	0.021310
H2071	H207	0.961300	0.067700	0.023800
C4181	C418	0.877510	0.076400	0.016510
H2081	H208	0.870000	0.034100	0.015600
C4191	C419	0.836330	0.013450	0.070360
C4201	C420	0.835070	0.075570	0.073500
H2091	H209	0.800600	0.096900	0.070400
C4211	C421	0.883000	0.107490	0.081070
H2101	H210	0.881600	0.150300	0.083000
C4221	C422	0.933830	0.075480	0.085910
C4231	C423	0.983100	0.110030	0.091740
N531	N53	0.020100	0.143500	0.095770
C4241	C424	0.935270	0.011960	0.083380
H2111	H211	0.969500	0.990400	0.086700
C4251	C425	0.886480	0.980830	0.076060
H2121	H212	0.886900	0.937800	0.074900
C4261	C426	0.767200	0.923220	0.070560
C4271	C427	0.769120	0.910460	0.096920
H2131	H213	0.784100	0.939800	0.108300
C4281	C428	0.749610	0.856130	0.106080
H2141	H214	0.750200	0.848400	0.123800
C4291	C429	0.728850	0.812260	0.089450
C4301	C430	0.709390	0.755380	0.098910
N541	N54	0.693980	0.708800	0.106440
C4311	C431	0.727790	0.823170	0.063340
H2151	H215	0.714200	0.792900	0.052000
C4321	C432	0.746640	0.878300	0.054130
H2161	H216	0.745700	0.885900	0.036400
C4331	C433	0.303100	0.801710	0.770920
C4341	C434	0.258650	0.798280	0.789430
C4351	C435	0.257740	0.759490	0.767550
C4361	C436	0.353850	0.826410	0.762920
C4371	C437	0.234590	0.817870	0.811190
C4381	C438	0.235390	0.712740	0.754350
C4391	C439	0.371950	0.816960	0.736640
C4401	C440	0.330970	0.812330	0.717360
H2171	H217	0.291900	0.817200	0.721500
C4411	C441	0.346070	0.800760	0.692360
H2181	H218	0.317600	0.797200	0.679600
C4421	C442	0.403110	0.794460	0.686100
C4431	C443	0.420460	0.782610	0.660500
N551	N55	0.432670	0.774120	0.639770
C4441	C444	0.445720	0.801110	0.704940
H2191	H219	0.484900	0.798200	0.700500
C4451	C445	0.429640	0.811970	0.729860
H2201	H220	0.458100	0.816100	0.742600
C4461	C446	0.388640	0.861030	0.780850
C4471	C447	0.418170	0.913250	0.773370
H2211	H221	0.417000	0.925700	0.756100
C4481	C448	0.448980	0.946840	0.790660
H2221	H222	0.469100	0.981900	0.785200
C4491	C449	0.450510	0.929210	0.816240
C4501	C450	0.480190	0.966940	0.834070
N561	N56	0.502340	0.000640	0.847520
C4511	C451	0.423230	0.876160	0.823860
H2231	H223	0.426000	0.862900	0.841000
C4521	C452	0.392130	0.842820	0.806490
H2241	H224	0.372900	0.807200	0.811900
C4531	C453	0.257050	0.872330	0.823910
C4541	C454	0.279500	0.920770	0.809680
H2251	H225	0.276900	0.919900	0.791700
C4551	C455	0.305060	0.969200	0.821460
H2261	H226	0.320400	0.001600	0.811700
C4561	C456	0.308330	0.970430	0.847800
C4571	C457	0.337790	0.019370	0.860370
N571	N57	0.362550	0.057380	0.870480
C4581	C458	0.283840	0.923660	0.862440
H2271	H227	0.285400	0.925300	0.880500
C4591	C459	0.257920	0.876110	0.850700
H2281	H228	0.240300	0.845300	0.860600
C4601	C460	0.187910	0.782140	0.822690
C4611	C461	0.139260	0.808920	0.832540
H2291	H229	0.136000	0.851900	0.832700
C4621	C462	0.095150	0.773630	0.842130
H2301	H230	0.061100	0.792000	0.848200
C4631	C463	0.101680	0.710450	0.842740
C4641	C464	0.055970	0.672540	0.851400
N581	N58	0.021280	0.639470	0.857880
C4651	C465	0.151710	0.683320	0.833680
H2311	H231	0.156600	0.640600	0.834600
C4661	C466	0.193650	0.719290	0.823380
H2321	H232	0.227000	0.701000	0.816600
C4671	C467	0.179770	0.685590	0.761220
C4681	C468	0.134090	0.723360	0.768430
H2331	H233	0.138900	0.766100	0.768700
C4691	C469	0.082110	0.698180	0.775170
H2341	H234	0.051200	0.723500	0.780000
C4701	C470	0.075710	0.636220	0.774750
C4711	C471	0.022830	0.608200	0.781560
N591	N59	0.980700	0.582990	0.787600
C4721	C472	0.120520	0.597650	0.767660
H2351	H235	0.115700	0.554900	0.767800
C4731	C473	0.172240	0.623320	0.760380
H2361	H236	0.202500	0.598000	0.754800
C4741	C474	0.268820	0.684620	0.733550
C4751	C475	0.242790	0.666500	0.711160
H2371	H237	0.202600	0.670200	0.709400
C4761	C476	0.274700	0.643090	0.691260
H2381	H238	0.256600	0.630900	0.675900
C4771	C477	0.333720	0.637710	0.694020
C4781	C478	0.368970	0.615860	0.673620
N601	N60	0.398540	0.598740	0.658040
C4791	C479	0.361040	0.655160	0.716760
H2391	H239	0.401100	0.651000	0.718700
C4801	C480	0.327950	0.678570	0.736190
H2401	H240	0.345700	0.690700	0.751600
Cu111	Cu11	0.964160	0.924840	0.363560
C4811	C481	0.792640	0.993310	0.524420
Cu121	Cu12	0.947590	0.726080	0.396580
C4821	C482	0.747500	0.949380	0.520630
C4831	C483	0.744030	0.992620	0.540750
C4841	C484	0.843570	0.015770	0.516640
C4851	C485	0.725990	0.902050	0.507690
C4861	C486	0.714570	0.018160	0.560290
C4871	C487	0.942740	0.142670	0.534560
H2411	H241	0.967700	0.170700	0.526600
C4881	C488	0.876150	0.059280	0.531800
C4891	C489	0.871650	0.059140	0.558470
H2421	H242	0.848300	0.029800	0.566600
C4901	C490	0.901100	0.101490	0.572990
H2431	H243	0.896800	0.102100	0.590900
C4911	C491	0.936750	0.142690	0.561170
C4921	C492	0.967190	0.185890	0.576330
N611	N61	0.992380	0.219410	0.588300
C4931	C493	0.912410	0.102170	0.520250
H2441	H244	0.915800	0.102900	0.502300
C4941	C494	0.865060	0.996490	0.491290
C4951	C495	0.921980	0.979820	0.487590
H2451	H245	0.947400	0.979700	0.501600
C4961	C496	0.941730	0.963430	0.463750
H2461	H246	0.980500	0.952600	0.461400
C4971	C497	0.904220	0.963100	0.443480
C4981	C498	0.923950	0.947920	0.418800
N621	N62	0.940530	0.936390	0.398730
C4991	C499	0.846280	0.979680	0.446780
H2471	H247	0.820700	0.979400	0.432800
C5001	C500	0.827760	0.996230	0.470620
H2481	H248	0.789100	0.007600	0.473000
C5011	C501	0.758980	0.870160	0.488320
C5021	C502	0.818030	0.859920	0.492220
H2491	H249	0.835900	0.874000	0.507300
C5031	C503	0.849870	0.829200	0.473980
H2501	H250	0.889300	0.821900	0.476600
C5041	C504	0.823310	0.809240	0.451890
C5051	C505	0.856750	0.776390	0.433010
N631	N63	0.883280	0.752180	0.418310
C5061	C506	0.764910	0.817200	0.448370
H2511	H251	0.746700	0.801000	0.433800
C5071	C507	0.734250	0.848370	0.465980
H2521	H252	0.694900	0.855500	0.463000
C5081	C508	0.667250	0.881730	0.512950
C5091	C509	0.654200	0.819260	0.513760
H2531	H253	0.683400	0.790300	0.510800
C5101	C510	0.598900	0.799660	0.518800
H2541	H254	0.590600	0.757500	0.519600
C5111	C511	0.555600	0.842500	0.522640
C5121	C512	0.498640	0.819800	0.526750
N641	N64	0.453350	0.803000	0.530490
C5131	C513	0.568250	0.903540	0.521310
H2551	H255	0.538700	0.932300	0.523800
C5141	C514	0.622490	0.923600	0.516510
H2561	H256	0.630000	0.965900	0.515600
C5151	C515	0.663670	0.986550	0.570360
C5161	C516	0.664930	0.924430	0.573500
H2571	H257	0.699400	0.903100	0.570400
C5171	C517	0.617000	0.892510	0.581070
H2581	H258	0.618400	0.849700	0.583000
C5181	C518	0.566170	0.924520	0.585910
C5191	C519	0.516900	0.889970	0.591740
N651	N65	0.479900	0.856500	0.595770
C5201	C520	0.564730	0.988040	0.583380
H2591	H259	0.530500	0.009600	0.586700
C5211	C521	0.613520	0.019170	0.576060
H2601	H260	0.613100	0.062200	0.574900
C5221	C522	0.732800	0.076780	0.570560
C5231	C523	0.730880	0.089540	0.596920
H2611	H261	0.715900	0.060200	0.608300
C5241	C524	0.750390	0.143870	0.606080
H2621	H262	0.749800	0.151600	0.623800
C5251	C525	0.771150	0.187740	0.589450
C5261	C526	0.790610	0.244620	0.598910
N661	N66	0.806020	0.291200	0.606440
C5271	C527	0.772210	0.176830	0.563340
H2631	H263	0.785800	0.207100	0.552000
C5281	C528	0.753360	0.121700	0.554130
H2641	H264	0.754300	0.114100	0.536400
C5291	C529	0.196900	0.198290	0.270920
C5301	C530	0.241350	0.201720	0.289430
C5311	C531	0.242260	0.240510	0.267550
C5321	C532	0.146150	0.173590	0.262920
C5331	C533	0.265410	0.182130	0.311190
C5341	C534	0.264610	0.287260	0.254350
C5351	C535	0.128050	0.183040	0.236640
C5361	C536	0.169030	0.187670	0.217360
H2651	H265	0.208100	0.182800	0.221500
C5371	C537	0.153930	0.199240	0.192360
H2661	H266	0.182400	0.202800	0.179600
C5381	C538	0.096890	0.205540	0.186100
C5391	C539	0.079540	0.217390	0.160500
N671	N67	0.067330	0.225880	0.139770
C5401	C540	0.054280	0.198890	0.204940
H2671	H267	0.015100	0.201800	0.200500
C5411	C541	0.070360	0.188030	0.229860
H2681	H268	0.041900	0.183900	0.242600
C5421	C542	0.111360	0.138970	0.280850
C5431	C543	0.081830	0.086750	0.273370
H2691	H269	0.083000	0.074300	0.256100
C5441	C544	0.051020	0.053160	0.290660
H2701	H270	0.030900	0.018100	0.285200
C5451	C545	0.049490	0.070790	0.316240
C5461	C546	0.019810	0.033060	0.334070
N681	N68	0.997660	0.999360	0.347520
C5471	C547	0.076770	0.123840	0.323860
H2711	H271	0.074000	0.137100	0.341000
C5481	C548	0.107870	0.157180	0.306490
H2721	H272	0.127100	0.192800	0.311900
C5491	C549	0.242950	0.127670	0.323910
C5501	C550	0.220500	0.079230	0.309680
H2731	H273	0.223100	0.080100	0.291700
C5511	C551	0.194940	0.030800	0.321460
H2741	H274	0.179600	0.998400	0.311700
C5521	C552	0.191670	0.029570	0.347800
C5531	C553	0.162210	0.980630	0.360370
N691	N69	0.137450	0.942620	0.370480
C5541	C554	0.216160	0.076340	0.362440
H2751	H275	0.214600	0.074700	0.380500
C5551	C555	0.242080	0.123890	0.350700
H2761	H276	0.259700	0.154700	0.360600
C5561	C556	0.312090	0.217860	0.322690
C5571	C557	0.360740	0.191080	0.332540
H2771	H277	0.364000	0.148100	0.332700
C5581	C558	0.404850	0.226370	0.342130
H2781	H278	0.438900	0.208000	0.348200
C5591	C559	0.398320	0.289550	0.342740
C5601	C560	0.444030	0.327460	0.351400
N701	N70	0.478720	0.360530	0.357880
C5611	C561	0.348290	0.316680	0.333680
H2791	H279	0.343400	0.359400	0.334600
C5621	C562	0.306350	0.280710	0.323380
H2801	H280	0.273000	0.299000	0.316600
C5631	C563	0.320230	0.314410	0.261220
C5641	C564	0.365910	0.276640	0.268430
H2811	H281	0.361100	0.233900	0.268700
C5651	C565	0.417890	0.301820	0.275170
H2821	H282	0.448800	0.276500	0.280000
C5661	C566	0.424290	0.363780	0.274750
C5671	C567	0.477170	0.391800	0.281560
N711	N71	0.519300	0.417010	0.287600
C5681	C568	0.379480	0.402350	0.267660
H2831	H283	0.384300	0.445100	0.267800
C5691	C569	0.327760	0.376680	0.260380
H2841	H284	0.297500	0.402000	0.254800
C5701	C570	0.231180	0.315380	0.233550
C5711	C571	0.257210	0.333500	0.211160
H2851	H285	0.297400	0.329800	0.209400
C5721	C572	0.225300	0.356910	0.191260
H2861	H286	0.243400	0.369100	0.175900
C5731	C573	0.166280	0.362290	0.194020
C5741	C574	0.131030	0.384140	0.173620
N721	N72	0.101460	0.401260	0.158040
C5751	C575	0.138960	0.344840	0.216760
H2871	H287	0.098900	0.349000	0.218700
C5761	C576	0.172050	0.321430	0.236190
H2881	H288	0.154300	0.309300	0.251600
Cu131	Cu13	0.464160	0.575160	0.636440
C5771	C577	0.292640	0.506690	0.475580
Cu141	Cu14	0.447590	0.773920	0.603420
C5781	C578	0.247500	0.550620	0.479370
C5791	C579	0.244030	0.507380	0.459250
C5801	C580	0.343570	0.484230	0.483360
C5811	C581	0.225990	0.597950	0.492310
C5821	C582	0.214570	0.481840	0.439710
C5831	C583	0.442740	0.357330	0.465440
H2891	H289	0.467700	0.329300	0.473400
C5841	C584	0.376150	0.440720	0.468200
C5851	C585	0.371650	0.440860	0.441530
H2901	H290	0.348300	0.470200	0.433400
C5861	C586	0.401100	0.398510	0.427010
H2911	H291	0.396800	0.397900	0.409100
C5871	C587	0.436750	0.357310	0.438830
C5881	C588	0.467190	0.314110	0.423670
N731	N73	0.492380	0.280590	0.411700
C5891	C589	0.412410	0.397830	0.479750
H2921	H292	0.415800	0.397100	0.497700
C5901	C590	0.365060	0.503510	0.508710
C5911	C591	0.421980	0.520180	0.512410
H2931	H293	0.447400	0.520300	0.498400
C5921	C592	0.441730	0.536570	0.536250
H2941	H294	0.480500	0.547400	0.538600
C5931	C593	0.404220	0.536900	0.556520
C5941	C594	0.423950	0.552080	0.581200
N741	N74	0.440530	0.563610	0.601270
C5951	C595	0.346280	0.520320	0.553220
H2951	H295	0.320700	0.520600	0.567200
C5961	C596	0.327760	0.503770	0.529380
H2961	H296	0.289100	0.492400	0.527000
C5971	C597	0.258980	0.629840	0.511680
C5981	C598	0.318030	0.640080	0.507780
H2971	H297	0.335900	0.626000	0.492700
C5991	C599	0.349870	0.670800	0.526020
H2981	H298	0.389300	0.678100	0.523400
C6001	C600	0.323310	0.690760	0.548110
C6011	C601	0.356750	0.723610	0.566990
N751	N75	0.383280	0.747820	0.581690
C6021	C602	0.264910	0.682800	0.551630
H2991	H299	0.246700	0.699000	0.566200
C6031	C603	0.234250	0.651630	0.534020
H3001	H300	0.194900	0.644500	0.537000
C6041	C604	0.167250	0.618270	0.487050
C6051	C605	0.154200	0.680740	0.486240
H3011	H301	0.183400	0.709700	0.489200
C6061	C606	0.098900	0.700340	0.481200
H3021	H302	0.090600	0.742500	0.480400
C6071	C607	0.055600	0.657500	0.477360
C6081	C608	0.998640	0.680200	0.473250
N761	N76	0.953350	0.697000	0.469510
C6091	C609	0.068250	0.596460	0.478690
H3031	H303	0.038700	0.567700	0.476200
C6101	C610	0.122490	0.576400	0.483490
H3041	H304	0.130000	0.534100	0.484400
C6111	C611	0.163670	0.513450	0.429640
C6121	C612	0.164930	0.575570	0.426500
H3051	H305	0.199400	0.596900	0.429600
C6131	C613	0.117000	0.607490	0.418930
H3061	H306	0.118400	0.650300	0.417000
C6141	C614	0.066170	0.575480	0.414090
C6151	C615	0.016900	0.610030	0.408260
N771	N77	0.979900	0.643500	0.404230
C6161	C616	0.064730	0.511960	0.416620
H3071	H307	0.030500	0.490400	0.413300
C6171	C617	0.113520	0.480830	0.423940
H3081	H308	0.113100	0.437800	0.425100
C6181	C618	0.232800	0.423220	0.429440
C6191	C619	0.230880	0.410460	0.403080
H3091	H309	0.215900	0.439800	0.391700
C6201	C620	0.250390	0.356130	0.393920
H3101	H310	0.249800	0.348400	0.376200
C6211	C621	0.271150	0.312260	0.410550
C6221	C622	0.290610	0.255380	0.401090
N781	N78	0.306020	0.208800	0.393560
C6231	C623	0.272210	0.323170	0.436660
H3111	H311	0.285800	0.292900	0.448000
C6241	C624	0.253360	0.378300	0.445870
H3121	H312	0.254300	0.385900	0.463600
C6251	C625	0.696900	0.301710	0.729080
C6261	C626	0.741350	0.298280	0.710570
C6271	C627	0.742260	0.259490	0.732450
C6281	C628	0.646150	0.326410	0.737080
C6291	C629	0.765410	0.317870	0.688810
C6301	C630	0.764610	0.212740	0.745650
C6311	C631	0.628050	0.316960	0.763360
C6321	C632	0.669030	0.312330	0.782640
H3131	H313	0.708100	0.317200	0.778500
C6331	C633	0.653930	0.300760	0.807640
H3141	H314	0.682400	0.297200	0.820400
C6341	C634	0.596890	0.294460	0.813900
C6351	C635	0.579540	0.282610	0.839500
N791	N79	0.567330	0.274120	0.860230
C6361	C636	0.554280	0.301110	0.795060
H3151	H315	0.515100	0.298200	0.799500
C6371	C637	0.570360	0.311970	0.770140
H3161	H316	0.541900	0.316100	0.757400
C6381	C638	0.611360	0.361030	0.719150
C6391	C639	0.581830	0.413250	0.726630
H3171	H317	0.583000	0.425700	0.743900
C6401	C640	0.551020	0.446840	0.709340
H3181	H318	0.530900	0.481900	0.714800
C6411	C641	0.549490	0.429210	0.683760
C6421	C642	0.519810	0.466940	0.665930
N801	N80	0.497660	0.500640	0.652480
C6431	C643	0.576770	0.376160	0.676140
H3191	H319	0.574000	0.362900	0.659000
C6441	C644	0.607870	0.342820	0.693510
H3201	H320	0.627100	0.307200	0.688100
C6451	C645	0.742950	0.372330	0.676090
C6461	C646	0.720500	0.420770	0.690320
H3211	H321	0.723100	0.419900	0.708300
C6471	C647	0.694940	0.469200	0.678540
H3221	H322	0.679600	0.501600	0.688300
C6481	C648	0.691670	0.470430	0.652200
C6491	C649	0.662210	0.519370	0.639630
N811	N81	0.637450	0.557380	0.629520
C6501	C650	0.716160	0.423660	0.637560
H3231	H323	0.714600	0.425300	0.619500
C6511	C651	0.742080	0.376110	0.649300
H3241	H324	0.759700	0.345300	0.639400
C6521	C652	0.812090	0.282140	0.677310
C6531	C653	0.860740	0.308920	0.667460
H3251	H325	0.864000	0.351900	0.667300
C6541	C654	0.904850	0.273630	0.657870
H3261	H326	0.938900	0.292000	0.651800
C6551	C655	0.898320	0.210450	0.657260
C6561	C656	0.944030	0.172540	0.648600
N821	N82	0.978720	0.139470	0.642120
C6571	C657	0.848290	0.183320	0.666320
H3271	H327	0.843400	0.140600	0.665400
C6581	C658	0.806350	0.219290	0.676620
H3281	H328	0.773000	0.201000	0.683400
C6591	C659	0.820230	0.185590	0.738780
C6601	C660	0.865910	0.223360	0.731570
H3291	H329	0.861100	0.266100	0.731300
C6611	C661	0.917890	0.198180	0.724830
H3301	H330	0.948800	0.223500	0.720000
C6621	C662	0.924290	0.136220	0.725250
C6631	C663	0.977170	0.108200	0.718440
N831	N83	0.019300	0.082990	0.712400
C6641	C664	0.879480	0.097650	0.732340
H3311	H331	0.884300	0.054900	0.732200
C6651	C665	0.827760	0.123320	0.739620
H3321	H332	0.797500	0.098000	0.745200
C6661	C666	0.731180	0.184620	0.766450
C6671	C667	0.757210	0.166500	0.788840
H3331	H333	0.797400	0.170200	0.790600
C6681	C668	0.725300	0.143090	0.808740
H3341	H334	0.743400	0.130900	0.824100
C6691	C669	0.666280	0.137710	0.805980
C6701	C670	0.631030	0.115860	0.826380
N841	N84	0.601460	0.098740	0.841960
C6711	C671	0.638960	0.155160	0.783240
H3351	H335	0.598900	0.151000	0.781300
C6721	C672	0.672050	0.178570	0.763810
H3361	H336	0.654300	0.190700	0.748400
Cu151	Cu15	0.035840	0.424840	0.136440
C6731	C673	0.207360	0.493310	0.975580
Cu161	Cu16	0.052410	0.226080	0.103420
C6741	C674	0.252500	0.449380	0.979370
C6751	C675	0.255970	0.492620	0.959250
C6761	C676	0.156430	0.515770	0.983360
C6771	C677	0.274010	0.402050	0.992310
C6781	C678	0.285430	0.518160	0.939710
C6791	C679	0.057260	0.642670	0.965440
H3371	H337	0.032300	0.670700	0.973400
C6801	C680	0.123850	0.559280	0.968200
C6811	C681	0.128350	0.559140	0.941530
H3381	H338	0.151700	0.529800	0.933400
C6821	C682	0.098900	0.601490	0.927010
H3391	H339	0.103200	0.602100	0.909100
C6831	C683	0.063250	0.642690	0.938830
C6841	C684	0.032810	0.685890	0.923670
N851	N85	0.007620	0.719410	0.911700
C6851	C685	0.087590	0.602170	0.979750
H3401	H340	0.084200	0.602900	0.997700
C6861	C686	0.134940	0.496490	0.008710
C6871	C687	0.078020	0.479820	0.012410
H3411	H341	0.052600	0.479700	0.998400
C6881	C688	0.058270	0.463430	0.036250
H3421	H342	0.019500	0.452600	0.038600
C6891	C689	0.095780	0.463100	0.056520
C6901	C690	0.076050	0.447920	0.081200
N861	N86	0.059470	0.436390	0.101270
C6911	C691	0.153720	0.479680	0.053220
H3431	H343	0.179300	0.479400	0.067200
C6921	C692	0.172240	0.496230	0.029380
H3441	H344	0.210900	0.507600	0.027000
C6931	C693	0.241020	0.370160	0.011680
C6941	C694	0.181970	0.359920	0.007780
H3451	H345	0.164100	0.374000	0.992700
C6951	C695	0.150130	0.329200	0.026020
H3461	H346	0.110700	0.321900	0.023400
C6961	C696	0.176690	0.309240	0.048110
C6971	C697	0.143250	0.276390	0.066990
N871	N87	0.116720	0.252180	0.081690
C6981	C698	0.235090	0.317200	0.051630
H3471	H347	0.253300	0.301000	0.066200
C6991	C699	0.265750	0.348370	0.034020
H3481	H348	0.305100	0.355500	0.037000
C7001	C700	0.332750	0.381730	0.987050
C7011	C701	0.345800	0.319260	0.986240
H3491	H349	0.316600	0.290300	0.989200
C7021	C702	0.401100	0.299660	0.981200
H3501	H350	0.409400	0.257500	0.980400
C7031	C703	0.444400	0.342500	0.977360
C7041	C704	0.501360	0.319800	0.973250
N881	N88	0.546650	0.303000	0.969510
C7051	C705	0.431750	0.403540	0.978690
H3511	H351	0.461300	0.432300	0.976200
C7061	C706	0.377510	0.423600	0.983490
H3521	H352	0.370000	0.465900	0.984400
C7071	C707	0.336330	0.486550	0.929640
C7081	C708	0.335070	0.424430	0.926500
H3531	H353	0.300600	0.403100	0.929600
C7091	C709	0.383000	0.392510	0.918930
H3541	H354	0.381600	0.349700	0.917000
C7101	C710	0.433830	0.424520	0.914090
C7111	C711	0.483100	0.389970	0.908260
N891	N89	0.520100	0.356500	0.904230
C7121	C712	0.435270	0.488040	0.916620
H3551	H355	0.469500	0.509600	0.913300
C7131	C713	0.386480	0.519170	0.923940
H3561	H356	0.386900	0.562200	0.925100
C7141	C714	0.267200	0.576780	0.929440
C7151	C715	0.269120	0.589540	0.903080
H3571	H357	0.284100	0.560200	0.891700
C7161	C716	0.249610	0.643870	0.893920
H3581	H358	0.250200	0.651600	0.876200
C7171	C717	0.228850	0.687740	0.910550
C7181	C718	0.209390	0.744620	0.901090
N901	N90	0.193980	0.791200	0.893560
C7191	C719	0.227790	0.676830	0.936660
H3591	H359	0.214200	0.707100	0.948000
C7201	C720	0.246640	0.621700	0.945870
H3601	H360	0.245700	0.614100	0.963600
C7211	C721	0.803100	0.698290	0.229080
C7221	C722	0.758650	0.701720	0.210570
C7231	C723	0.757740	0.740510	0.232450
C7241	C724	0.853850	0.673590	0.237080
C7251	C725	0.734590	0.682130	0.188810
C7261	C726	0.735390	0.787260	0.245650
C7271	C727	0.871950	0.683040	0.263360
C7281	C728	0.830970	0.687670	0.282640
H3611	H361	0.791900	0.682800	0.278500
C7291	C729	0.846070	0.699240	0.307640
H3621	H362	0.817600	0.702800	0.320400
C7301	C730	0.903110	0.705540	0.313900
C7311	C731	0.920460	0.717390	0.339500
N911	N91	0.932670	0.725880	0.360230
C7321	C732	0.945720	0.698890	0.295060
H3631	H363	0.984900	0.701800	0.299500
C7331	C733	0.929640	0.688030	0.270140
H3641	H364	0.958100	0.683900	0.257400
C7341	C734	0.888640	0.638970	0.219150
C7351	C735	0.918170	0.586750	0.226630
H3651	H365	0.917000	0.574300	0.243900
C7361	C736	0.948980	0.553160	0.209340
H3661	H366	0.969100	0.518100	0.214800
C7371	C737	0.950510	0.570790	0.183760
C7381	C738	0.980190	0.533060	0.165930
N921	N92	0.002340	0.499360	0.152480
C7391	C739	0.923230	0.623840	0.176140
H3671	H367	0.926000	0.637100	0.159000
C7401	C740	0.892130	0.657180	0.193510
H3681	H368	0.872900	0.692800	0.188100
C7411	C741	0.757050	0.627670	0.176090
C7421	C742	0.779500	0.579230	0.190320
H3691	H369	0.776900	0.580100	0.208300
C7431	C743	0.805060	0.530800	0.178540
H3701	H370	0.820400	0.498400	0.188300
C7441	C744	0.808330	0.529570	0.152200
C7451	C745	0.837790	0.480630	0.139630
N931	N93	0.862550	0.442620	0.129520
C7461	C746	0.783840	0.576340	0.137560
H3711	H371	0.785400	0.574700	0.119500
C7471	C747	0.757920	0.623890	0.149300
H3721	H372	0.740300	0.654700	0.139400
C7481	C748	0.687910	0.717860	0.177310
C7491	C749	0.639260	0.691080	0.167460
H3731	H373	0.636000	0.648100	0.167300
C7501	C750	0.595150	0.726370	0.157870
H3741	H374	0.561100	0.708000	0.151800
C7511	C751	0.601680	0.789550	0.157260
C7521	C752	0.555970	0.827460	0.148600
N941	N94	0.521280	0.860530	0.142120
C7531	C753	0.651710	0.816680	0.166320
H3751	H375	0.656600	0.859400	0.165400
C7541	C754	0.693650	0.780710	0.176620
H3761	H376	0.727000	0.799000	0.183400
C7551	C755	0.679770	0.814410	0.238780
C7561	C756	0.634090	0.776640	0.231570
H3771	H377	0.638900	0.733900	0.231300
C7571	C757	0.582110	0.801820	0.224830
H3781	H378	0.551200	0.776500	0.220000
C7581	C758	0.575710	0.863780	0.225250
C7591	C759	0.522830	0.891800	0.218440
N951	N95	0.480700	0.917010	0.212400
C7601	C760	0.620520	0.902350	0.232340
H3791	H379	0.615700	0.945100	0.232200
C7611	C761	0.672240	0.876680	0.239620
H3801	H380	0.702500	0.902000	0.245200
C7621	C762	0.768820	0.815380	0.266450
C7631	C763	0.742790	0.833500	0.288840
H3811	H381	0.702600	0.829800	0.290600
C7641	C764	0.774700	0.856910	0.308740
H3821	H382	0.756600	0.869100	0.324100
C7651	C765	0.833720	0.862290	0.305980
C7661	C766	0.868970	0.884140	0.326380
N961	N96	0.898540	0.901260	0.341960
C7671	C767	0.861040	0.844840	0.283240
H3831	H383	0.901100	0.849000	0.281300
C7681	C768	0.827950	0.821430	0.263810
H3841	H384	0.845700	0.809300	0.248400
