data_ZEZQEC_clean_PM
_symmetry_space_group_name_H-M	'P1'
_cell_length_a	9.900800
_cell_length_b	11.655600
_cell_length_c	13.435400
_cell_angle_alpha	66.832000
_cell_angle_beta	87.019000
_cell_angle_gamma	76.377000
_symmetry_Int_Tables_number 1

loop_
_symmetry_equiv_pos_as_xyz
'x,y,z'

loop_
_atom_site_label
_atom_site_type_symbol
_atom_site_fract_x
_atom_site_fract_y
_atom_site_fract_z
Gd11	Gd1	0.763720	0.973690	0.995160
Gd21	Gd2	0.236280	0.026310	0.004840
H11	H1	0.985500	0.372600	0.556600
H21	H2	0.945200	0.266600	0.734000
H31	H3	0.562400	0.493400	0.680200
H41	H4	0.695600	0.674100	0.343200
H51	H5	0.315600	0.900500	0.294300
H61	H6	0.281300	0.800200	0.474100
H71	H7	0.688200	0.906400	0.443700
H81	H8	0.762600	0.925500	0.276000
H91	H9	0.092800	0.030100	0.338900
H101	H10	0.014500	0.627400	0.443400
H111	H11	0.054800	0.733400	0.266000
H121	H12	0.437600	0.506600	0.319800
H131	H13	0.304400	0.325900	0.656800
H141	H14	0.684400	0.099500	0.705700
H151	H15	0.718700	0.199800	0.525900
H161	H16	0.311800	0.093600	0.556300
H171	H17	0.237400	0.074500	0.724000
H181	H18	0.907200	0.969900	0.661100
C11	C1	0.710100	0.289600	0.841500
C21	C2	0.900200	0.398900	0.582900
C31	C3	0.875600	0.332700	0.688500
C41	C4	0.749300	0.364300	0.726300
C51	C5	0.649700	0.467500	0.656300
C61	C6	0.682600	0.528700	0.553600
C71	C7	0.580200	0.640700	0.475200
C81	C8	0.609200	0.700600	0.367800
C91	C9	0.510700	0.798600	0.298100
C101	C10	0.386000	0.834900	0.339200
C111	C11	0.366200	0.773600	0.447300
C121	C12	0.535100	0.867300	0.179200
C131	C13	0.772200	0.929700	0.423300
C141	C14	0.814100	0.943800	0.321400
C151	C15	0.935400	0.986100	0.286800
C161	C16	0.009400	0.005300	0.358400
C171	C17	0.960300	0.987800	0.462100
C181	C18	0.988400	0.003300	0.177400
C191	C19	0.289900	0.710400	0.158500
C201	C20	0.099800	0.601100	0.417100
C211	C21	0.124400	0.667300	0.311500
C221	C22	0.250700	0.635700	0.273700
C231	C23	0.350300	0.532500	0.343700
C241	C24	0.317400	0.471300	0.446400
C251	C25	0.419800	0.359300	0.524800
C261	C26	0.390800	0.299400	0.632200
C271	C27	0.489300	0.201400	0.701900
C281	C28	0.614000	0.165100	0.660800
C291	C29	0.633800	0.226400	0.552700
C301	C30	0.464900	0.132700	0.820800
C311	C31	0.227800	0.070300	0.576700
C321	C32	0.185900	0.056200	0.678600
C331	C33	0.064600	0.013900	0.713200
C341	C34	0.990600	0.994700	0.641600
C351	C35	0.039700	0.012200	0.537900
C361	C36	0.011600	0.996700	0.822600
N11	N1	0.461500	0.678400	0.516000
N21	N2	0.808000	0.499100	0.515800
N31	N3	0.843400	0.947000	0.495100
N41	N4	0.538500	0.321600	0.484000
N51	N5	0.192000	0.500900	0.484200
N61	N6	0.156600	0.053000	0.504900
O11	O1	0.603800	0.335000	0.878100
O21	O2	0.795000	0.186100	0.892600
O31	O3	0.432800	0.941000	0.121300
O41	O4	0.657500	0.850300	0.150200
O51	O5	0.105600	0.027700	0.158000
O61	O6	0.910200	0.993600	0.111100
O71	O7	0.396200	0.665000	0.121900
O81	O8	0.205000	0.813900	0.107400
O91	O9	0.567200	0.059000	0.878700
O101	O10	0.342500	0.149700	0.849800
O111	O11	0.894400	0.972300	0.842000
O121	O12	0.089800	0.006400	0.888900
