data_ZIBRAD_clean_PM
_symmetry_space_group_name_H-M	'P1'
_cell_length_a	18.272000
_cell_length_b	23.498000
_cell_length_c	29.935000
_cell_angle_alpha	90.000000
_cell_angle_beta	90.000000
_cell_angle_gamma	90.000000
_symmetry_Int_Tables_number 1

loop_
_symmetry_equiv_pos_as_xyz
'x,y,z'

loop_
_atom_site_label
_atom_site_type_symbol
_atom_site_fract_x
_atom_site_fract_y
_atom_site_fract_z
Cu11	Cu1	0.260700	0.107100	0.369000
N11	N1	0.271300	0.025000	0.370600
C11	C1	0.252000	0.993200	0.335500
C21	C2	0.253100	0.935100	0.336100
C31	C3	0.274500	0.906500	0.374100
C41	C4	0.295400	0.938800	0.410500
C51	C5	0.293800	0.997100	0.407200
N21	N2	0.307200	0.591200	0.425700
C61	C6	0.316100	0.536100	0.417700
C71	C7	0.346000	0.498800	0.447600
C81	C8	0.368300	0.518000	0.488900
C91	C9	0.358400	0.575500	0.497800
C101	C10	0.328500	0.609900	0.465600
N31	N3	0.461800	0.404500	0.584600
C111	C11	0.469500	0.396400	0.540900
C121	C12	0.441200	0.431800	0.509200
C131	C13	0.400900	0.479500	0.521700
C141	C14	0.392700	0.487700	0.567600
C151	C15	0.422800	0.449500	0.597200
H11	H1	0.232500	0.011200	0.309300
H21	H2	0.244000	0.913500	0.309400
H31	H3	0.312900	0.921400	0.437500
H41	H4	0.308800	0.019300	0.432500
H51	H5	0.299400	0.522300	0.389200
H61	H6	0.353800	0.460100	0.438600
H71	H7	0.370800	0.590900	0.526500
H81	H8	0.326200	0.650200	0.470600
H91	H9	0.501200	0.365900	0.531800
H101	H10	0.446400	0.422100	0.478200
H111	H11	0.365800	0.520000	0.578400
H121	H12	0.415100	0.455000	0.628700
Cu21	Cu2	0.260700	0.607100	0.869000
N41	N4	0.271300	0.525000	0.870600
C161	C16	0.252000	0.493200	0.835500
C171	C17	0.253100	0.435100	0.836100
C181	C18	0.274500	0.406500	0.874100
C191	C19	0.295400	0.438800	0.910500
C201	C20	0.293800	0.497100	0.907200
N51	N5	0.307200	0.091200	0.925700
C211	C21	0.316100	0.036100	0.917700
C221	C22	0.346000	0.998800	0.947600
C231	C23	0.368300	0.018000	0.988900
C241	C24	0.358400	0.075500	0.997800
C251	C25	0.328500	0.109900	0.965600
N61	N6	0.461800	0.904500	0.084600
C261	C26	0.469500	0.896400	0.040900
C271	C27	0.441200	0.931800	0.009200
C281	C28	0.400900	0.979500	0.021700
C291	C29	0.392700	0.987700	0.067600
C301	C30	0.422800	0.949500	0.097200
H131	H13	0.232500	0.511200	0.809300
H141	H14	0.244000	0.413500	0.809400
H151	H15	0.312900	0.421400	0.937500
H161	H16	0.308800	0.519300	0.932500
H171	H17	0.299400	0.022300	0.889200
H181	H18	0.353800	0.960100	0.938600
H191	H19	0.370800	0.090900	0.026500
H201	H20	0.326200	0.150200	0.970600
H211	H21	0.501200	0.865900	0.031800
H221	H22	0.446400	0.922100	0.978200
H231	H23	0.365800	0.020000	0.078400
H241	H24	0.415100	0.955000	0.128700
Cu31	Cu3	0.760700	0.107100	0.869000
N71	N7	0.771300	0.025000	0.870600
C311	C31	0.752000	0.993200	0.835500
C321	C32	0.753100	0.935100	0.836100
C331	C33	0.774500	0.906500	0.874100
C341	C34	0.795400	0.938800	0.910500
C351	C35	0.793800	0.997100	0.907200
N81	N8	0.807200	0.591200	0.925700
C361	C36	0.816100	0.536100	0.917700
C371	C37	0.846000	0.498800	0.947600
C381	C38	0.868300	0.518000	0.988900
C391	C39	0.858400	0.575500	0.997800
C401	C40	0.828500	0.609900	0.965600
N91	N9	0.961800	0.404500	0.084600
C411	C41	0.969500	0.396400	0.040900
C421	C42	0.941200	0.431800	0.009200
C431	C43	0.900900	0.479500	0.021700
C441	C44	0.892700	0.487700	0.067600
C451	C45	0.922800	0.449500	0.097200
H251	H25	0.732500	0.011200	0.809300
H261	H26	0.744000	0.913500	0.809400
H271	H27	0.812900	0.921400	0.937500
H281	H28	0.808800	0.019300	0.932500
H291	H29	0.799400	0.522300	0.889200
H301	H30	0.853800	0.460100	0.938600
H311	H31	0.870800	0.590900	0.026500
H321	H32	0.826200	0.650200	0.970600
H331	H33	0.001200	0.365900	0.031800
H341	H34	0.946400	0.422100	0.978200
H351	H35	0.865800	0.520000	0.078400
H361	H36	0.915100	0.455000	0.128700
Cu41	Cu4	0.760700	0.607100	0.369000
N101	N10	0.771300	0.525000	0.370600
C461	C46	0.752000	0.493200	0.335500
C471	C47	0.753100	0.435100	0.336100
C481	C48	0.774500	0.406500	0.374100
C491	C49	0.795400	0.438800	0.410500
C501	C50	0.793800	0.497100	0.407200
N111	N11	0.807200	0.091200	0.425700
C511	C51	0.816100	0.036100	0.417700
C521	C52	0.846000	0.998800	0.447600
C531	C53	0.868300	0.018000	0.488900
C541	C54	0.858400	0.075500	0.497800
C551	C55	0.828500	0.109900	0.465600
N121	N12	0.961800	0.904500	0.584600
C561	C56	0.969500	0.896400	0.540900
C571	C57	0.941200	0.931800	0.509200
C581	C58	0.900900	0.979500	0.521700
C591	C59	0.892700	0.987700	0.567600
C601	C60	0.922800	0.949500	0.597200
H371	H37	0.732500	0.511200	0.309300
H381	H38	0.744000	0.413500	0.309400
H391	H39	0.812900	0.421400	0.437500
H401	H40	0.808800	0.519300	0.432500
H411	H41	0.799400	0.022300	0.389200
H421	H42	0.853800	0.960100	0.438600
H431	H43	0.870800	0.090900	0.526500
H441	H44	0.826200	0.150200	0.470600
H451	H45	0.001200	0.865900	0.531800
H461	H46	0.946400	0.922100	0.478200
H471	H47	0.865800	0.020000	0.578400
H481	H48	0.915100	0.955000	0.628700
Cu51	Cu5	0.260700	0.642900	0.381000
N131	N13	0.271300	0.725000	0.379400
C611	C61	0.252000	0.756800	0.414500
C621	C62	0.253100	0.814900	0.413900
C631	C63	0.274500	0.843500	0.375900
C641	C64	0.295400	0.811200	0.339500
C651	C65	0.293800	0.752900	0.342800
N141	N14	0.307200	0.158800	0.324300
C661	C66	0.316100	0.213900	0.332300
C671	C67	0.346000	0.251200	0.302400
C681	C68	0.368300	0.232000	0.261100
C691	C69	0.358400	0.174500	0.252200
C701	C70	0.328500	0.140100	0.284400
N151	N15	0.461800	0.345500	0.165400
C711	C71	0.469500	0.353600	0.209100
C721	C72	0.441200	0.318200	0.240800
C731	C73	0.400900	0.270500	0.228300
C741	C74	0.392700	0.262300	0.182400
C751	C75	0.422800	0.300500	0.152800
H491	H49	0.232500	0.738800	0.440700
H501	H50	0.244000	0.836500	0.440600
H511	H51	0.312900	0.828600	0.312500
H521	H52	0.308800	0.730700	0.317500
H531	H53	0.299400	0.227700	0.360800
H541	H54	0.353800	0.289900	0.311400
H551	H55	0.370800	0.159100	0.223500
H561	H56	0.326200	0.099800	0.279400
H571	H57	0.501200	0.384100	0.218200
H581	H58	0.446400	0.327900	0.271800
H591	H59	0.365800	0.230000	0.171600
H601	H60	0.415100	0.295000	0.121300
Cu61	Cu6	0.260700	0.142900	0.881000
N161	N16	0.271300	0.225000	0.879400
C761	C76	0.252000	0.256800	0.914500
C771	C77	0.253100	0.314900	0.913900
C781	C78	0.274500	0.343500	0.875900
C791	C79	0.295400	0.311200	0.839500
C801	C80	0.293800	0.252900	0.842800
N171	N17	0.307200	0.658800	0.824300
C811	C81	0.316100	0.713900	0.832300
C821	C82	0.346000	0.751200	0.802400
C831	C83	0.368300	0.732000	0.761100
C841	C84	0.358400	0.674500	0.752200
C851	C85	0.328500	0.640100	0.784400
N181	N18	0.461800	0.845500	0.665400
C861	C86	0.469500	0.853600	0.709100
C871	C87	0.441200	0.818200	0.740800
C881	C88	0.400900	0.770500	0.728300
C891	C89	0.392700	0.762300	0.682400
C901	C90	0.422800	0.800500	0.652800
H611	H61	0.232500	0.238800	0.940700
H621	H62	0.244000	0.336500	0.940600
H631	H63	0.312900	0.328600	0.812500
H641	H64	0.308800	0.230700	0.817500
H651	H65	0.299400	0.727700	0.860800
H661	H66	0.353800	0.789900	0.811400
H671	H67	0.370800	0.659100	0.723500
H681	H68	0.326200	0.599800	0.779400
H691	H69	0.501200	0.884100	0.718200
H701	H70	0.446400	0.827900	0.771800
H711	H71	0.365800	0.730000	0.671600
H721	H72	0.415100	0.795000	0.621300
Cu71	Cu7	0.760700	0.642900	0.881000
N191	N19	0.771300	0.725000	0.879400
C911	C91	0.752000	0.756800	0.914500
C921	C92	0.753100	0.814900	0.913900
C931	C93	0.774500	0.843500	0.875900
C941	C94	0.795400	0.811200	0.839500
C951	C95	0.793800	0.752900	0.842800
N201	N20	0.807200	0.158800	0.824300
C961	C96	0.816100	0.213900	0.832300
C971	C97	0.846000	0.251200	0.802400
C981	C98	0.868300	0.232000	0.761100
C991	C99	0.858400	0.174500	0.752200
C1001	C100	0.828500	0.140100	0.784400
N211	N21	0.961800	0.345500	0.665400
C1011	C101	0.969500	0.353600	0.709100
C1021	C102	0.941200	0.318200	0.740800
C1031	C103	0.900900	0.270500	0.728300
C1041	C104	0.892700	0.262300	0.682400
C1051	C105	0.922800	0.300500	0.652800
H731	H73	0.732500	0.738800	0.940700
H741	H74	0.744000	0.836500	0.940600
H751	H75	0.812900	0.828600	0.812500
H761	H76	0.808800	0.730700	0.817500
H771	H77	0.799400	0.227700	0.860800
H781	H78	0.853800	0.289900	0.811400
H791	H79	0.870800	0.159100	0.723500
H801	H80	0.826200	0.099800	0.779400
H811	H81	0.001200	0.384100	0.718200
H821	H82	0.946400	0.327900	0.771800
H831	H83	0.865800	0.230000	0.671600
H841	H84	0.915100	0.295000	0.621300
Cu81	Cu8	0.760700	0.142900	0.381000
N221	N22	0.771300	0.225000	0.379400
C1061	C106	0.752000	0.256800	0.414500
C1071	C107	0.753100	0.314900	0.413900
C1081	C108	0.774500	0.343500	0.375900
C1091	C109	0.795400	0.311200	0.339500
C1101	C110	0.793800	0.252900	0.342800
N231	N23	0.807200	0.658800	0.324300
C1111	C111	0.816100	0.713900	0.332300
C1121	C112	0.846000	0.751200	0.302400
C1131	C113	0.868300	0.732000	0.261100
C1141	C114	0.858400	0.674500	0.252200
C1151	C115	0.828500	0.640100	0.284400
N241	N24	0.961800	0.845500	0.165400
C1161	C116	0.969500	0.853600	0.209100
C1171	C117	0.941200	0.818200	0.240800
C1181	C118	0.900900	0.770500	0.228300
C1191	C119	0.892700	0.762300	0.182400
C1201	C120	0.922800	0.800500	0.152800
H851	H85	0.732500	0.238800	0.440700
H861	H86	0.744000	0.336500	0.440600
H871	H87	0.812900	0.328600	0.312500
H881	H88	0.808800	0.230700	0.317500
H891	H89	0.799400	0.727700	0.360800
H901	H90	0.853800	0.789900	0.311400
H911	H91	0.870800	0.659100	0.223500
H921	H92	0.826200	0.599800	0.279400
H931	H93	0.001200	0.884100	0.218200
H941	H94	0.946400	0.827900	0.271800
H951	H95	0.865800	0.730000	0.171600
H961	H96	0.915100	0.795000	0.121300
Cu91	Cu9	0.510700	0.357100	0.631000
N251	N25	0.521300	0.275000	0.629400
C1211	C121	0.502000	0.243200	0.664500
C1221	C122	0.503100	0.185100	0.663900
C1231	C123	0.524500	0.156500	0.625900
C1241	C124	0.545400	0.188800	0.589500
C1251	C125	0.543800	0.247100	0.592800
N261	N26	0.557200	0.841200	0.574300
C1261	C126	0.566100	0.786100	0.582300
C1271	C127	0.596000	0.748800	0.552400
C1281	C128	0.618300	0.768000	0.511100
C1291	C129	0.608400	0.825500	0.502200
C1301	C130	0.578500	0.859900	0.534400
N271	N27	0.711800	0.654500	0.415400
C1311	C131	0.719500	0.646400	0.459100
C1321	C132	0.691200	0.681800	0.490800
C1331	C133	0.650900	0.729500	0.478300
C1341	C134	0.642700	0.737700	0.432400
C1351	C135	0.672800	0.699500	0.402800
H971	H97	0.482500	0.261200	0.690700
H981	H98	0.494000	0.163500	0.690600
H991	H99	0.562900	0.171400	0.562500
H1001	H100	0.558800	0.269300	0.567500
H1011	H101	0.549400	0.772300	0.610800
H1021	H102	0.603800	0.710100	0.561400
H1031	H103	0.620800	0.840900	0.473500
H1041	H104	0.576200	0.900200	0.529400
H1051	H105	0.751200	0.615900	0.468200
H1061	H106	0.696400	0.672100	0.521800
H1071	H107	0.615800	0.770000	0.421600
H1081	H108	0.665100	0.705000	0.371300
Cu101	Cu10	0.510700	0.857100	0.131000
N281	N28	0.521300	0.775000	0.129400
C1361	C136	0.502000	0.743200	0.164500
C1371	C137	0.503100	0.685100	0.163900
C1381	C138	0.524500	0.656500	0.125900
C1391	C139	0.545400	0.688800	0.089500
C1401	C140	0.543800	0.747100	0.092800
N291	N29	0.557200	0.341200	0.074300
C1411	C141	0.566100	0.286100	0.082300
C1421	C142	0.596000	0.248800	0.052400
C1431	C143	0.618300	0.268000	0.011100
C1441	C144	0.608400	0.325500	0.002200
C1451	C145	0.578500	0.359900	0.034400
N301	N30	0.711800	0.154500	0.915400
C1461	C146	0.719500	0.146400	0.959100
C1471	C147	0.691200	0.181800	0.990800
C1481	C148	0.650900	0.229500	0.978300
C1491	C149	0.642700	0.237700	0.932400
C1501	C150	0.672800	0.199500	0.902800
H1091	H109	0.482500	0.761200	0.190700
H1101	H110	0.494000	0.663500	0.190600
H1111	H111	0.562900	0.671400	0.062500
H1121	H112	0.558800	0.769300	0.067500
H1131	H113	0.549400	0.272300	0.110800
H1141	H114	0.603800	0.210100	0.061400
H1151	H115	0.620800	0.340900	0.973500
H1161	H116	0.576200	0.400200	0.029400
H1171	H117	0.751200	0.115900	0.968200
H1181	H118	0.696400	0.172100	0.021800
H1191	H119	0.615800	0.270000	0.921600
H1201	H120	0.665100	0.205000	0.871300
Cu111	Cu11	0.010700	0.357100	0.131000
N311	N31	0.021300	0.275000	0.129400
C1511	C151	0.002000	0.243200	0.164500
C1521	C152	0.003100	0.185100	0.163900
C1531	C153	0.024500	0.156500	0.125900
C1541	C154	0.045400	0.188800	0.089500
C1551	C155	0.043800	0.247100	0.092800
N321	N32	0.057200	0.841200	0.074300
C1561	C156	0.066100	0.786100	0.082300
C1571	C157	0.096000	0.748800	0.052400
C1581	C158	0.118300	0.768000	0.011100
C1591	C159	0.108400	0.825500	0.002200
C1601	C160	0.078500	0.859900	0.034400
N331	N33	0.211800	0.654500	0.915400
C1611	C161	0.219500	0.646400	0.959100
C1621	C162	0.191200	0.681800	0.990800
C1631	C163	0.150900	0.729500	0.978300
C1641	C164	0.142700	0.737700	0.932400
C1651	C165	0.172800	0.699500	0.902800
H1211	H121	0.982500	0.261200	0.190700
H1221	H122	0.994000	0.163500	0.190600
H1231	H123	0.062900	0.171400	0.062500
H1241	H124	0.058800	0.269300	0.067500
H1251	H125	0.049400	0.772300	0.110800
H1261	H126	0.103800	0.710100	0.061400
H1271	H127	0.120800	0.840900	0.973500
H1281	H128	0.076200	0.900200	0.029400
H1291	H129	0.251200	0.615900	0.968200
H1301	H130	0.196400	0.672100	0.021800
H1311	H131	0.115800	0.770000	0.921600
H1321	H132	0.165100	0.705000	0.871300
Cu121	Cu12	0.010700	0.857100	0.631000
N341	N34	0.021300	0.775000	0.629400
C1661	C166	0.002000	0.743200	0.664500
C1671	C167	0.003100	0.685100	0.663900
C1681	C168	0.024500	0.656500	0.625900
C1691	C169	0.045400	0.688800	0.589500
C1701	C170	0.043800	0.747100	0.592800
N351	N35	0.057200	0.341200	0.574300
C1711	C171	0.066100	0.286100	0.582300
C1721	C172	0.096000	0.248800	0.552400
C1731	C173	0.118300	0.268000	0.511100
C1741	C174	0.108400	0.325500	0.502200
C1751	C175	0.078500	0.359900	0.534400
N361	N36	0.211800	0.154500	0.415400
C1761	C176	0.219500	0.146400	0.459100
C1771	C177	0.191200	0.181800	0.490800
C1781	C178	0.150900	0.229500	0.478300
C1791	C179	0.142700	0.237700	0.432400
C1801	C180	0.172800	0.199500	0.402800
H1331	H133	0.982500	0.761200	0.690700
H1341	H134	0.994000	0.663500	0.690600
H1351	H135	0.062900	0.671400	0.562500
H1361	H136	0.058800	0.769300	0.567500
H1371	H137	0.049400	0.272300	0.610800
H1381	H138	0.103800	0.210100	0.561400
H1391	H139	0.120800	0.340900	0.473500
H1401	H140	0.076200	0.400200	0.529400
H1411	H141	0.251200	0.115900	0.468200
H1421	H142	0.196400	0.172100	0.521800
H1431	H143	0.115800	0.270000	0.421600
H1441	H144	0.165100	0.205000	0.371300
Cu131	Cu13	0.510700	0.892900	0.619000
N371	N37	0.521300	0.975000	0.620600
C1811	C181	0.502000	0.006800	0.585500
C1821	C182	0.503100	0.064900	0.586100
C1831	C183	0.524500	0.093500	0.624100
C1841	C184	0.545400	0.061200	0.660500
C1851	C185	0.543800	0.002900	0.657200
N381	N38	0.557200	0.408800	0.675700
C1861	C186	0.566100	0.463900	0.667700
C1871	C187	0.596000	0.501200	0.697600
C1881	C188	0.618300	0.482000	0.738900
C1891	C189	0.608400	0.424500	0.747800
C1901	C190	0.578500	0.390100	0.715600
N391	N39	0.711800	0.595500	0.834600
C1911	C191	0.719500	0.603600	0.790900
C1921	C192	0.691200	0.568200	0.759200
C1931	C193	0.650900	0.520500	0.771700
C1941	C194	0.642700	0.512300	0.817600
C1951	C195	0.672800	0.550500	0.847200
H1451	H145	0.482500	0.988800	0.559300
H1461	H146	0.494000	0.086500	0.559400
H1471	H147	0.562900	0.078600	0.687500
H1481	H148	0.558800	0.980700	0.682500
H1491	H149	0.549400	0.477700	0.639200
H1501	H150	0.603800	0.539900	0.688600
H1511	H151	0.620800	0.409100	0.776500
H1521	H152	0.576200	0.349800	0.720600
H1531	H153	0.751200	0.634100	0.781800
H1541	H154	0.696400	0.577900	0.728200
H1551	H155	0.615800	0.480000	0.828400
H1561	H156	0.665100	0.545000	0.878700
Cu141	Cu14	0.510700	0.392900	0.119000
N401	N40	0.521300	0.475000	0.120600
C1961	C196	0.502000	0.506800	0.085500
C1971	C197	0.503100	0.564900	0.086100
C1981	C198	0.524500	0.593500	0.124100
C1991	C199	0.545400	0.561200	0.160500
C2001	C200	0.543800	0.502900	0.157200
N411	N41	0.557200	0.908800	0.175700
C2011	C201	0.566100	0.963900	0.167700
C2021	C202	0.596000	0.001200	0.197600
C2031	C203	0.618300	0.982000	0.238900
C2041	C204	0.608400	0.924500	0.247800
C2051	C205	0.578500	0.890100	0.215600
N421	N42	0.711800	0.095500	0.334600
C2061	C206	0.719500	0.103600	0.290900
C2071	C207	0.691200	0.068200	0.259200
C2081	C208	0.650900	0.020500	0.271700
C2091	C209	0.642700	0.012300	0.317600
C2101	C210	0.672800	0.050500	0.347200
H1571	H157	0.482500	0.488800	0.059300
H1581	H158	0.494000	0.586500	0.059400
H1591	H159	0.562900	0.578600	0.187500
H1601	H160	0.558800	0.480700	0.182500
H1611	H161	0.549400	0.977700	0.139200
H1621	H162	0.603800	0.039900	0.188600
H1631	H163	0.620800	0.909100	0.276500
H1641	H164	0.576200	0.849800	0.220600
H1651	H165	0.751200	0.134100	0.281800
H1661	H166	0.696400	0.077900	0.228200
H1671	H167	0.615800	0.980000	0.328400
H1681	H168	0.665100	0.045000	0.378700
Cu151	Cu15	0.010700	0.892900	0.119000
N431	N43	0.021300	0.975000	0.120600
C2111	C211	0.002000	0.006800	0.085500
C2121	C212	0.003100	0.064900	0.086100
C2131	C213	0.024500	0.093500	0.124100
C2141	C214	0.045400	0.061200	0.160500
C2151	C215	0.043800	0.002900	0.157200
N441	N44	0.057200	0.408800	0.175700
C2161	C216	0.066100	0.463900	0.167700
C2171	C217	0.096000	0.501200	0.197600
C2181	C218	0.118300	0.482000	0.238900
C2191	C219	0.108400	0.424500	0.247800
C2201	C220	0.078500	0.390100	0.215600
N451	N45	0.211800	0.595500	0.334600
C2211	C221	0.219500	0.603600	0.290900
C2221	C222	0.191200	0.568200	0.259200
C2231	C223	0.150900	0.520500	0.271700
C2241	C224	0.142700	0.512300	0.317600
C2251	C225	0.172800	0.550500	0.347200
H1691	H169	0.982500	0.988800	0.059300
H1701	H170	0.994000	0.086500	0.059400
H1711	H171	0.062900	0.078600	0.187500
H1721	H172	0.058800	0.980700	0.182500
H1731	H173	0.049400	0.477700	0.139200
H1741	H174	0.103800	0.539900	0.188600
H1751	H175	0.120800	0.409100	0.276500
H1761	H176	0.076200	0.349800	0.220600
H1771	H177	0.251200	0.634100	0.281800
H1781	H178	0.196400	0.577900	0.228200
H1791	H179	0.115800	0.480000	0.328400
H1801	H180	0.165100	0.545000	0.378700
Cu161	Cu16	0.010700	0.392900	0.619000
N461	N46	0.021300	0.475000	0.620600
C2261	C226	0.002000	0.506800	0.585500
C2271	C227	0.003100	0.564900	0.586100
C2281	C228	0.024500	0.593500	0.624100
C2291	C229	0.045400	0.561200	0.660500
C2301	C230	0.043800	0.502900	0.657200
N471	N47	0.057200	0.908800	0.675700
C2311	C231	0.066100	0.963900	0.667700
C2321	C232	0.096000	0.001200	0.697600
C2331	C233	0.118300	0.982000	0.738900
C2341	C234	0.108400	0.924500	0.747800
C2351	C235	0.078500	0.890100	0.715600
N481	N48	0.211800	0.095500	0.834600
C2361	C236	0.219500	0.103600	0.790900
C2371	C237	0.191200	0.068200	0.759200
C2381	C238	0.150900	0.020500	0.771700
C2391	C239	0.142700	0.012300	0.817600
C2401	C240	0.172800	0.050500	0.847200
H1811	H181	0.982500	0.488800	0.559300
H1821	H182	0.994000	0.586500	0.559400
H1831	H183	0.062900	0.578600	0.687500
H1841	H184	0.058800	0.480700	0.682500
H1851	H185	0.049400	0.977700	0.639200
H1861	H186	0.103800	0.039900	0.688600
H1871	H187	0.120800	0.909100	0.776500
H1881	H188	0.076200	0.849800	0.720600
H1891	H189	0.251200	0.134100	0.781800
H1901	H190	0.196400	0.077900	0.728200
H1911	H191	0.115800	0.980000	0.828400
H1921	H192	0.165100	0.045000	0.878700
Cu171	Cu17	0.489300	0.642900	0.369000
N491	N49	0.478700	0.725000	0.370600
C2411	C241	0.498000	0.756800	0.335500
C2421	C242	0.496900	0.814900	0.336100
C2431	C243	0.475500	0.843500	0.374100
C2441	C244	0.454600	0.811200	0.410500
C2451	C245	0.456200	0.752900	0.407200
N501	N50	0.442800	0.158800	0.425700
C2461	C246	0.433900	0.213900	0.417700
C2471	C247	0.404000	0.251200	0.447600
C2481	C248	0.381700	0.232000	0.488900
C2491	C249	0.391600	0.174500	0.497800
C2501	C250	0.421500	0.140100	0.465600
N511	N51	0.288200	0.345500	0.584600
C2511	C251	0.280500	0.353600	0.540900
C2521	C252	0.308800	0.318200	0.509200
C2531	C253	0.349100	0.270500	0.521700
C2541	C254	0.357300	0.262300	0.567600
C2551	C255	0.327200	0.300500	0.597200
H1931	H193	0.517500	0.738800	0.309300
H1941	H194	0.506000	0.836500	0.309400
H1951	H195	0.437100	0.828600	0.437500
H1961	H196	0.441200	0.730700	0.432500
H1971	H197	0.450600	0.227700	0.389200
H1981	H198	0.396200	0.289900	0.438600
H1991	H199	0.379200	0.159100	0.526500
H2001	H200	0.423800	0.099800	0.470600
H2011	H201	0.248800	0.384100	0.531800
H2021	H202	0.303600	0.327900	0.478200
H2031	H203	0.384200	0.230000	0.578400
H2041	H204	0.334900	0.295000	0.628700
Cu181	Cu18	0.489300	0.142900	0.869000
N521	N52	0.478700	0.225000	0.870600
C2561	C256	0.498000	0.256800	0.835500
C2571	C257	0.496900	0.314900	0.836100
C2581	C258	0.475500	0.343500	0.874100
C2591	C259	0.454600	0.311200	0.910500
C2601	C260	0.456200	0.252900	0.907200
N531	N53	0.442800	0.658800	0.925700
C2611	C261	0.433900	0.713900	0.917700
C2621	C262	0.404000	0.751200	0.947600
C2631	C263	0.381700	0.732000	0.988900
C2641	C264	0.391600	0.674500	0.997800
C2651	C265	0.421500	0.640100	0.965600
N541	N54	0.288200	0.845500	0.084600
C2661	C266	0.280500	0.853600	0.040900
C2671	C267	0.308800	0.818200	0.009200
C2681	C268	0.349100	0.770500	0.021700
C2691	C269	0.357300	0.762300	0.067600
C2701	C270	0.327200	0.800500	0.097200
H2051	H205	0.517500	0.238800	0.809300
H2061	H206	0.506000	0.336500	0.809400
H2071	H207	0.437100	0.328600	0.937500
H2081	H208	0.441200	0.230700	0.932500
H2091	H209	0.450600	0.727700	0.889200
H2101	H210	0.396200	0.789900	0.938600
H2111	H211	0.379200	0.659100	0.026500
H2121	H212	0.423800	0.599800	0.970600
H2131	H213	0.248800	0.884100	0.031800
H2141	H214	0.303600	0.827900	0.978200
H2151	H215	0.384200	0.730000	0.078400
H2161	H216	0.334900	0.795000	0.128700
Cu191	Cu19	0.989300	0.642900	0.869000
N551	N55	0.978700	0.725000	0.870600
C2711	C271	0.998000	0.756800	0.835500
C2721	C272	0.996900	0.814900	0.836100
C2731	C273	0.975500	0.843500	0.874100
C2741	C274	0.954600	0.811200	0.910500
C2751	C275	0.956200	0.752900	0.907200
N561	N56	0.942800	0.158800	0.925700
C2761	C276	0.933900	0.213900	0.917700
C2771	C277	0.904000	0.251200	0.947600
C2781	C278	0.881700	0.232000	0.988900
C2791	C279	0.891600	0.174500	0.997800
C2801	C280	0.921500	0.140100	0.965600
N571	N57	0.788200	0.345500	0.084600
C2811	C281	0.780500	0.353600	0.040900
C2821	C282	0.808800	0.318200	0.009200
C2831	C283	0.849100	0.270500	0.021700
C2841	C284	0.857300	0.262300	0.067600
C2851	C285	0.827200	0.300500	0.097200
H2171	H217	0.017500	0.738800	0.809300
H2181	H218	0.006000	0.836500	0.809400
H2191	H219	0.937100	0.828600	0.937500
H2201	H220	0.941200	0.730700	0.932500
H2211	H221	0.950600	0.227700	0.889200
H2221	H222	0.896200	0.289900	0.938600
H2231	H223	0.879200	0.159100	0.026500
H2241	H224	0.923800	0.099800	0.970600
H2251	H225	0.748800	0.384100	0.031800
H2261	H226	0.803600	0.327900	0.978200
H2271	H227	0.884200	0.230000	0.078400
H2281	H228	0.834900	0.295000	0.128700
Cu201	Cu20	0.989300	0.142900	0.369000
N581	N58	0.978700	0.225000	0.370600
C2861	C286	0.998000	0.256800	0.335500
C2871	C287	0.996900	0.314900	0.336100
C2881	C288	0.975500	0.343500	0.374100
C2891	C289	0.954600	0.311200	0.410500
C2901	C290	0.956200	0.252900	0.407200
N591	N59	0.942800	0.658800	0.425700
C2911	C291	0.933900	0.713900	0.417700
C2921	C292	0.904000	0.751200	0.447600
C2931	C293	0.881700	0.732000	0.488900
C2941	C294	0.891600	0.674500	0.497800
C2951	C295	0.921500	0.640100	0.465600
N601	N60	0.788200	0.845500	0.584600
C2961	C296	0.780500	0.853600	0.540900
C2971	C297	0.808800	0.818200	0.509200
C2981	C298	0.849100	0.770500	0.521700
C2991	C299	0.857300	0.762300	0.567600
C3001	C300	0.827200	0.800500	0.597200
H2291	H229	0.017500	0.238800	0.309300
H2301	H230	0.006000	0.336500	0.309400
H2311	H231	0.937100	0.328600	0.437500
H2321	H232	0.941200	0.230700	0.432500
H2331	H233	0.950600	0.727700	0.389200
H2341	H234	0.896200	0.789900	0.438600
H2351	H235	0.879200	0.659100	0.526500
H2361	H236	0.923800	0.599800	0.470600
H2371	H237	0.748800	0.884100	0.531800
H2381	H238	0.803600	0.827900	0.478200
H2391	H239	0.884200	0.730000	0.578400
H2401	H240	0.834900	0.795000	0.628700
Cu211	Cu21	0.489300	0.107100	0.381000
N611	N61	0.478700	0.025000	0.379400
C3011	C301	0.498000	0.993200	0.414500
C3021	C302	0.496900	0.935100	0.413900
C3031	C303	0.475500	0.906500	0.375900
C3041	C304	0.454600	0.938800	0.339500
C3051	C305	0.456200	0.997100	0.342800
N621	N62	0.442800	0.591200	0.324300
C3061	C306	0.433900	0.536100	0.332300
C3071	C307	0.404000	0.498800	0.302400
C3081	C308	0.381700	0.518000	0.261100
C3091	C309	0.391600	0.575500	0.252200
C3101	C310	0.421500	0.609900	0.284400
N631	N63	0.288200	0.404500	0.165400
C3111	C311	0.280500	0.396400	0.209100
C3121	C312	0.308800	0.431800	0.240800
C3131	C313	0.349100	0.479500	0.228300
C3141	C314	0.357300	0.487700	0.182400
C3151	C315	0.327200	0.449500	0.152800
H2411	H241	0.517500	0.011200	0.440700
H2421	H242	0.506000	0.913500	0.440600
H2431	H243	0.437100	0.921400	0.312500
H2441	H244	0.441200	0.019300	0.317500
H2451	H245	0.450600	0.522300	0.360800
H2461	H246	0.396200	0.460100	0.311400
H2471	H247	0.379200	0.590900	0.223500
H2481	H248	0.423800	0.650200	0.279400
H2491	H249	0.248800	0.365900	0.218200
H2501	H250	0.303600	0.422100	0.271800
H2511	H251	0.384200	0.520000	0.171600
H2521	H252	0.334900	0.455000	0.121300
Cu221	Cu22	0.489300	0.607100	0.881000
N641	N64	0.478700	0.525000	0.879400
C3161	C316	0.498000	0.493200	0.914500
C3171	C317	0.496900	0.435100	0.913900
C3181	C318	0.475500	0.406500	0.875900
C3191	C319	0.454600	0.438800	0.839500
C3201	C320	0.456200	0.497100	0.842800
N651	N65	0.442800	0.091200	0.824300
C3211	C321	0.433900	0.036100	0.832300
C3221	C322	0.404000	0.998800	0.802400
C3231	C323	0.381700	0.018000	0.761100
C3241	C324	0.391600	0.075500	0.752200
C3251	C325	0.421500	0.109900	0.784400
N661	N66	0.288200	0.904500	0.665400
C3261	C326	0.280500	0.896400	0.709100
C3271	C327	0.308800	0.931800	0.740800
C3281	C328	0.349100	0.979500	0.728300
C3291	C329	0.357300	0.987700	0.682400
C3301	C330	0.327200	0.949500	0.652800
H2531	H253	0.517500	0.511200	0.940700
H2541	H254	0.506000	0.413500	0.940600
H2551	H255	0.437100	0.421400	0.812500
H2561	H256	0.441200	0.519300	0.817500
H2571	H257	0.450600	0.022300	0.860800
H2581	H258	0.396200	0.960100	0.811400
H2591	H259	0.379200	0.090900	0.723500
H2601	H260	0.423800	0.150200	0.779400
H2611	H261	0.248800	0.865900	0.718200
H2621	H262	0.303600	0.922100	0.771800
H2631	H263	0.384200	0.020000	0.671600
H2641	H264	0.334900	0.955000	0.621300
Cu231	Cu23	0.989300	0.107100	0.881000
N671	N67	0.978700	0.025000	0.879400
C3311	C331	0.998000	0.993200	0.914500
C3321	C332	0.996900	0.935100	0.913900
C3331	C333	0.975500	0.906500	0.875900
C3341	C334	0.954600	0.938800	0.839500
C3351	C335	0.956200	0.997100	0.842800
N681	N68	0.942800	0.591200	0.824300
C3361	C336	0.933900	0.536100	0.832300
C3371	C337	0.904000	0.498800	0.802400
C3381	C338	0.881700	0.518000	0.761100
C3391	C339	0.891600	0.575500	0.752200
C3401	C340	0.921500	0.609900	0.784400
N691	N69	0.788200	0.404500	0.665400
C3411	C341	0.780500	0.396400	0.709100
C3421	C342	0.808800	0.431800	0.740800
C3431	C343	0.849100	0.479500	0.728300
C3441	C344	0.857300	0.487700	0.682400
C3451	C345	0.827200	0.449500	0.652800
H2651	H265	0.017500	0.011200	0.940700
H2661	H266	0.006000	0.913500	0.940600
H2671	H267	0.937100	0.921400	0.812500
H2681	H268	0.941200	0.019300	0.817500
H2691	H269	0.950600	0.522300	0.860800
H2701	H270	0.896200	0.460100	0.811400
H2711	H271	0.879200	0.590900	0.723500
H2721	H272	0.923800	0.650200	0.779400
H2731	H273	0.748800	0.365900	0.718200
H2741	H274	0.803600	0.422100	0.771800
H2751	H275	0.884200	0.520000	0.671600
H2761	H276	0.834900	0.455000	0.621300
Cu241	Cu24	0.989300	0.607100	0.381000
N701	N70	0.978700	0.525000	0.379400
C3461	C346	0.998000	0.493200	0.414500
C3471	C347	0.996900	0.435100	0.413900
C3481	C348	0.975500	0.406500	0.375900
C3491	C349	0.954600	0.438800	0.339500
C3501	C350	0.956200	0.497100	0.342800
N711	N71	0.942800	0.091200	0.324300
C3511	C351	0.933900	0.036100	0.332300
C3521	C352	0.904000	0.998800	0.302400
C3531	C353	0.881700	0.018000	0.261100
C3541	C354	0.891600	0.075500	0.252200
C3551	C355	0.921500	0.109900	0.284400
N721	N72	0.788200	0.904500	0.165400
C3561	C356	0.780500	0.896400	0.209100
C3571	C357	0.808800	0.931800	0.240800
C3581	C358	0.849100	0.979500	0.228300
C3591	C359	0.857300	0.987700	0.182400
C3601	C360	0.827200	0.949500	0.152800
H2771	H277	0.017500	0.511200	0.440700
H2781	H278	0.006000	0.413500	0.440600
H2791	H279	0.937100	0.421400	0.312500
H2801	H280	0.941200	0.519300	0.317500
H2811	H281	0.950600	0.022300	0.360800
H2821	H282	0.896200	0.960100	0.311400
H2831	H283	0.879200	0.090900	0.223500
H2841	H284	0.923800	0.150200	0.279400
H2851	H285	0.748800	0.865900	0.218200
H2861	H286	0.803600	0.922100	0.271800
H2871	H287	0.884200	0.020000	0.171600
H2881	H288	0.834900	0.955000	0.121300
Cu251	Cu25	0.739300	0.892900	0.631000
N731	N73	0.728700	0.975000	0.629400
C3611	C361	0.748000	0.006800	0.664500
C3621	C362	0.746900	0.064900	0.663900
C3631	C363	0.725500	0.093500	0.625900
C3641	C364	0.704600	0.061200	0.589500
C3651	C365	0.706200	0.002900	0.592800
N741	N74	0.692800	0.408800	0.574300
C3661	C366	0.683900	0.463900	0.582300
C3671	C367	0.654000	0.501200	0.552400
C3681	C368	0.631700	0.482000	0.511100
C3691	C369	0.641600	0.424500	0.502200
C3701	C370	0.671500	0.390100	0.534400
N751	N75	0.538200	0.595500	0.415400
C3711	C371	0.530500	0.603600	0.459100
C3721	C372	0.558800	0.568200	0.490800
C3731	C373	0.599100	0.520500	0.478300
C3741	C374	0.607300	0.512300	0.432400
C3751	C375	0.577200	0.550500	0.402800
H2891	H289	0.767500	0.988800	0.690700
H2901	H290	0.756000	0.086500	0.690600
H2911	H291	0.687100	0.078600	0.562500
H2921	H292	0.691200	0.980700	0.567500
H2931	H293	0.700600	0.477700	0.610800
H2941	H294	0.646200	0.539900	0.561400
H2951	H295	0.629200	0.409100	0.473500
H2961	H296	0.673800	0.349800	0.529400
H2971	H297	0.498800	0.634100	0.468200
H2981	H298	0.553600	0.577900	0.521800
H2991	H299	0.634200	0.480000	0.421600
H3001	H300	0.584900	0.545000	0.371300
Cu261	Cu26	0.739300	0.392900	0.131000
N761	N76	0.728700	0.475000	0.129400
C3761	C376	0.748000	0.506800	0.164500
C3771	C377	0.746900	0.564900	0.163900
C3781	C378	0.725500	0.593500	0.125900
C3791	C379	0.704600	0.561200	0.089500
C3801	C380	0.706200	0.502900	0.092800
N771	N77	0.692800	0.908800	0.074300
C3811	C381	0.683900	0.963900	0.082300
C3821	C382	0.654000	0.001200	0.052400
C3831	C383	0.631700	0.982000	0.011100
C3841	C384	0.641600	0.924500	0.002200
C3851	C385	0.671500	0.890100	0.034400
N781	N78	0.538200	0.095500	0.915400
C3861	C386	0.530500	0.103600	0.959100
C3871	C387	0.558800	0.068200	0.990800
C3881	C388	0.599100	0.020500	0.978300
C3891	C389	0.607300	0.012300	0.932400
C3901	C390	0.577200	0.050500	0.902800
H3011	H301	0.767500	0.488800	0.190700
H3021	H302	0.756000	0.586500	0.190600
H3031	H303	0.687100	0.578600	0.062500
H3041	H304	0.691200	0.480700	0.067500
H3051	H305	0.700600	0.977700	0.110800
H3061	H306	0.646200	0.039900	0.061400
H3071	H307	0.629200	0.909100	0.973500
H3081	H308	0.673800	0.849800	0.029400
H3091	H309	0.498800	0.134100	0.968200
H3101	H310	0.553600	0.077900	0.021800
H3111	H311	0.634200	0.980000	0.921600
H3121	H312	0.584900	0.045000	0.871300
Cu271	Cu27	0.239300	0.892900	0.131000
N791	N79	0.228700	0.975000	0.129400
C3911	C391	0.248000	0.006800	0.164500
C3921	C392	0.246900	0.064900	0.163900
C3931	C393	0.225500	0.093500	0.125900
C3941	C394	0.204600	0.061200	0.089500
C3951	C395	0.206200	0.002900	0.092800
N801	N80	0.192800	0.408800	0.074300
C3961	C396	0.183900	0.463900	0.082300
C3971	C397	0.154000	0.501200	0.052400
C3981	C398	0.131700	0.482000	0.011100
C3991	C399	0.141600	0.424500	0.002200
C4001	C400	0.171500	0.390100	0.034400
N811	N81	0.038200	0.595500	0.915400
C4011	C401	0.030500	0.603600	0.959100
C4021	C402	0.058800	0.568200	0.990800
C4031	C403	0.099100	0.520500	0.978300
C4041	C404	0.107300	0.512300	0.932400
C4051	C405	0.077200	0.550500	0.902800
H3131	H313	0.267500	0.988800	0.190700
H3141	H314	0.256000	0.086500	0.190600
H3151	H315	0.187100	0.078600	0.062500
H3161	H316	0.191200	0.980700	0.067500
H3171	H317	0.200600	0.477700	0.110800
H3181	H318	0.146200	0.539900	0.061400
H3191	H319	0.129200	0.409100	0.973500
H3201	H320	0.173800	0.349800	0.029400
H3211	H321	0.998800	0.634100	0.968200
H3221	H322	0.053600	0.577900	0.021800
H3231	H323	0.134200	0.480000	0.921600
H3241	H324	0.084900	0.545000	0.871300
Cu281	Cu28	0.239300	0.392900	0.631000
N821	N82	0.228700	0.475000	0.629400
C4061	C406	0.248000	0.506800	0.664500
C4071	C407	0.246900	0.564900	0.663900
C4081	C408	0.225500	0.593500	0.625900
C4091	C409	0.204600	0.561200	0.589500
C4101	C410	0.206200	0.502900	0.592800
N831	N83	0.192800	0.908800	0.574300
C4111	C411	0.183900	0.963900	0.582300
C4121	C412	0.154000	0.001200	0.552400
C4131	C413	0.131700	0.982000	0.511100
C4141	C414	0.141600	0.924500	0.502200
C4151	C415	0.171500	0.890100	0.534400
N841	N84	0.038200	0.095500	0.415400
C4161	C416	0.030500	0.103600	0.459100
C4171	C417	0.058800	0.068200	0.490800
C4181	C418	0.099100	0.020500	0.478300
C4191	C419	0.107300	0.012300	0.432400
C4201	C420	0.077200	0.050500	0.402800
H3251	H325	0.267500	0.488800	0.690700
H3261	H326	0.256000	0.586500	0.690600
H3271	H327	0.187100	0.578600	0.562500
H3281	H328	0.191200	0.480700	0.567500
H3291	H329	0.200600	0.977700	0.610800
H3301	H330	0.146200	0.039900	0.561400
H3311	H331	0.129200	0.909100	0.473500
H3321	H332	0.173800	0.849800	0.529400
H3331	H333	0.998800	0.134100	0.468200
H3341	H334	0.053600	0.077900	0.521800
H3351	H335	0.134200	0.980000	0.421600
H3361	H336	0.084900	0.045000	0.371300
Cu291	Cu29	0.739300	0.357100	0.619000
N851	N85	0.728700	0.275000	0.620600
C4211	C421	0.748000	0.243200	0.585500
C4221	C422	0.746900	0.185100	0.586100
C4231	C423	0.725500	0.156500	0.624100
C4241	C424	0.704600	0.188800	0.660500
C4251	C425	0.706200	0.247100	0.657200
N861	N86	0.692800	0.841200	0.675700
C4261	C426	0.683900	0.786100	0.667700
C4271	C427	0.654000	0.748800	0.697600
C4281	C428	0.631700	0.768000	0.738900
C4291	C429	0.641600	0.825500	0.747800
C4301	C430	0.671500	0.859900	0.715600
N871	N87	0.538200	0.654500	0.834600
C4311	C431	0.530500	0.646400	0.790900
C4321	C432	0.558800	0.681800	0.759200
C4331	C433	0.599100	0.729500	0.771700
C4341	C434	0.607300	0.737700	0.817600
C4351	C435	0.577200	0.699500	0.847200
H3371	H337	0.767500	0.261200	0.559300
H3381	H338	0.756000	0.163500	0.559400
H3391	H339	0.687100	0.171400	0.687500
H3401	H340	0.691200	0.269300	0.682500
H3411	H341	0.700600	0.772300	0.639200
H3421	H342	0.646200	0.710100	0.688600
H3431	H343	0.629200	0.840900	0.776500
H3441	H344	0.673800	0.900200	0.720600
H3451	H345	0.498800	0.615900	0.781800
H3461	H346	0.553600	0.672100	0.728200
H3471	H347	0.634200	0.770000	0.828400
H3481	H348	0.584900	0.705000	0.878700
Cu301	Cu30	0.739300	0.857100	0.119000
N881	N88	0.728700	0.775000	0.120600
C4361	C436	0.748000	0.743200	0.085500
C4371	C437	0.746900	0.685100	0.086100
C4381	C438	0.725500	0.656500	0.124100
C4391	C439	0.704600	0.688800	0.160500
C4401	C440	0.706200	0.747100	0.157200
N891	N89	0.692800	0.341200	0.175700
C4411	C441	0.683900	0.286100	0.167700
C4421	C442	0.654000	0.248800	0.197600
C4431	C443	0.631700	0.268000	0.238900
C4441	C444	0.641600	0.325500	0.247800
C4451	C445	0.671500	0.359900	0.215600
N901	N90	0.538200	0.154500	0.334600
C4461	C446	0.530500	0.146400	0.290900
C4471	C447	0.558800	0.181800	0.259200
C4481	C448	0.599100	0.229500	0.271700
C4491	C449	0.607300	0.237700	0.317600
C4501	C450	0.577200	0.199500	0.347200
H3491	H349	0.767500	0.761200	0.059300
H3501	H350	0.756000	0.663500	0.059400
H3511	H351	0.687100	0.671400	0.187500
H3521	H352	0.691200	0.769300	0.182500
H3531	H353	0.700600	0.272300	0.139200
H3541	H354	0.646200	0.210100	0.188600
H3551	H355	0.629200	0.340900	0.276500
H3561	H356	0.673800	0.400200	0.220600
H3571	H357	0.498800	0.115900	0.281800
H3581	H358	0.553600	0.172100	0.228200
H3591	H359	0.634200	0.270000	0.328400
H3601	H360	0.584900	0.205000	0.378700
Cu311	Cu31	0.239300	0.357100	0.119000
N911	N91	0.228700	0.275000	0.120600
C4511	C451	0.248000	0.243200	0.085500
C4521	C452	0.246900	0.185100	0.086100
C4531	C453	0.225500	0.156500	0.124100
C4541	C454	0.204600	0.188800	0.160500
C4551	C455	0.206200	0.247100	0.157200
N921	N92	0.192800	0.841200	0.175700
C4561	C456	0.183900	0.786100	0.167700
C4571	C457	0.154000	0.748800	0.197600
C4581	C458	0.131700	0.768000	0.238900
C4591	C459	0.141600	0.825500	0.247800
C4601	C460	0.171500	0.859900	0.215600
N931	N93	0.038200	0.654500	0.334600
C4611	C461	0.030500	0.646400	0.290900
C4621	C462	0.058800	0.681800	0.259200
C4631	C463	0.099100	0.729500	0.271700
C4641	C464	0.107300	0.737700	0.317600
C4651	C465	0.077200	0.699500	0.347200
H3611	H361	0.267500	0.261200	0.059300
H3621	H362	0.256000	0.163500	0.059400
H3631	H363	0.187100	0.171400	0.187500
H3641	H364	0.191200	0.269300	0.182500
H3651	H365	0.200600	0.772300	0.139200
H3661	H366	0.146200	0.710100	0.188600
H3671	H367	0.129200	0.840900	0.276500
H3681	H368	0.173800	0.900200	0.220600
H3691	H369	0.998800	0.615900	0.281800
H3701	H370	0.053600	0.672100	0.228200
H3711	H371	0.134200	0.770000	0.328400
H3721	H372	0.084900	0.705000	0.378700
Cu321	Cu32	0.239300	0.857100	0.619000
N941	N94	0.228700	0.775000	0.620600
C4661	C466	0.248000	0.743200	0.585500
C4671	C467	0.246900	0.685100	0.586100
C4681	C468	0.225500	0.656500	0.624100
C4691	C469	0.204600	0.688800	0.660500
C4701	C470	0.206200	0.747100	0.657200
N951	N95	0.192800	0.341200	0.675700
C4711	C471	0.183900	0.286100	0.667700
C4721	C472	0.154000	0.248800	0.697600
C4731	C473	0.131700	0.268000	0.738900
C4741	C474	0.141600	0.325500	0.747800
C4751	C475	0.171500	0.359900	0.715600
N961	N96	0.038200	0.154500	0.834600
C4761	C476	0.030500	0.146400	0.790900
C4771	C477	0.058800	0.181800	0.759200
C4781	C478	0.099100	0.229500	0.771700
C4791	C479	0.107300	0.237700	0.817600
C4801	C480	0.077200	0.199500	0.847200
H3731	H373	0.267500	0.761200	0.559300
H3741	H374	0.256000	0.663500	0.559400
H3751	H375	0.187100	0.671400	0.687500
H3761	H376	0.191200	0.769300	0.682500
H3771	H377	0.200600	0.272300	0.639200
H3781	H378	0.146200	0.210100	0.688600
H3791	H379	0.129200	0.340900	0.776500
H3801	H380	0.173800	0.400200	0.720600
H3811	H381	0.998800	0.115900	0.781800
H3821	H382	0.053600	0.172100	0.728200
H3831	H383	0.134200	0.270000	0.828400
H3841	H384	0.084900	0.205000	0.878700
