data_ZIDNEH_clean_PM
_symmetry_space_group_name_H-M	'P1'
_cell_length_a	21.558800
_cell_length_b	23.597000
_cell_length_c	43.755000
_cell_angle_alpha	92.343800
_cell_angle_beta	90.000000
_cell_angle_gamma	117.182000
_symmetry_Int_Tables_number 1

loop_
_symmetry_equiv_pos_as_xyz
'x,y,z'

loop_
_atom_site_label
_atom_site_type_symbol
_atom_site_fract_x
_atom_site_fract_y
_atom_site_fract_z
In11	In1	0.344340	0.585020	0.495010
In21	In2	0.280750	0.079600	0.744050
In31	In3	0.240680	0.585020	0.995010
In41	In4	0.798850	0.079600	0.244050
H11	H1	0.276500	0.869800	0.773500
H21	H2	0.214000	0.751400	0.584200
H31	H3	0.229000	0.680800	0.549400
H41	H4	0.431500	0.753400	0.576700
H51	H5	0.416500	0.824000	0.611400
H61	H6	0.376800	0.306000	0.819300
H71	H7	0.367800	0.377600	0.855400
H81	H8	0.166400	0.251400	0.869200
H91	H9	0.175300	0.179800	0.833100
H101	H10	0.361700	0.408200	0.903700
H111	H11	0.354500	0.482600	0.938700
H121	H12	0.150500	0.417200	0.915400
H131	H13	0.157600	0.342600	0.880500
H141	H14	0.305800	0.299600	0.715000
H151	H15	0.293600	0.300600	0.771600
H161	H16	0.303500	0.025800	0.630900
H171	H17	0.419400	0.296800	0.671800
H181	H18	0.426100	0.364600	0.633000
H191	H19	0.220200	0.256200	0.613600
H201	H20	0.213400	0.188400	0.652500
H211	H21	0.352100	0.905600	0.874400
H221	H22	0.358800	0.975200	0.836600
H231	H23	0.151000	0.872200	0.819600
H241	H24	0.144300	0.802600	0.857500
H251	H25	0.277300	0.864600	0.715400
H261	H26	0.262500	0.133200	0.858400
H271	H27	0.306100	0.132600	0.629700
H281	H28	0.402500	0.913000	0.619500
H291	H29	0.391100	0.984800	0.654700
H301	H30	0.191600	0.855000	0.669500
H311	H31	0.202900	0.783200	0.634200
H321	H32	0.332100	0.738600	0.923000
H331	H33	0.132500	0.699800	0.940800
H341	H34	0.138300	0.773200	0.905200
H351	H35	0.338000	0.812200	0.887400
H361	H36	0.440000	0.403000	0.590500
H371	H37	0.231000	0.340600	0.592500
H381	H38	0.240200	0.413200	0.555800
H391	H39	0.449300	0.475600	0.553800
H401	H40	0.258000	0.029200	0.858000
H411	H41	0.593300	0.869800	0.273500
H421	H42	0.537400	0.751400	0.084200
H431	H43	0.451800	0.680800	0.049400
H441	H44	0.321900	0.753400	0.076700
H451	H45	0.407500	0.824000	0.111400
H461	H46	0.929200	0.306000	0.319300
H471	H47	0.009800	0.377600	0.355400
H481	H48	0.085000	0.251400	0.369200
H491	H49	0.004500	0.179800	0.333100
H501	H50	0.046500	0.408200	0.403700
H511	H51	0.128100	0.482600	0.438700
H521	H52	0.266700	0.417200	0.415400
H531	H53	0.185000	0.342600	0.380500
H541	H54	0.993800	0.299600	0.215000
H551	H55	0.007000	0.300600	0.271600
H561	H56	0.722300	0.025800	0.130900
H571	H57	0.877400	0.296800	0.171800
H581	H58	0.938500	0.364600	0.133000
H591	H59	0.036000	0.256200	0.113600
H601	H60	0.975000	0.188400	0.152500
H611	H61	0.553500	0.905600	0.374400
H621	H62	0.616400	0.975200	0.336600
H631	H63	0.721200	0.872200	0.319600
H641	H64	0.658300	0.802600	0.357500
H651	H65	0.587300	0.864600	0.215400
H661	H66	0.870700	0.133200	0.358400
H671	H67	0.826500	0.132600	0.129700
H681	H68	0.510500	0.913000	0.119500
H691	H69	0.593700	0.984800	0.154700
H701	H70	0.663400	0.855000	0.169500
H711	H71	0.580300	0.783200	0.134200
H721	H72	0.406500	0.738600	0.423000
H731	H73	0.567300	0.699800	0.440800
H741	H74	0.634900	0.773200	0.405200
H751	H75	0.474200	0.812200	0.387400
H761	H76	0.963000	0.403000	0.090500
H771	H77	0.109600	0.340600	0.092500
H781	H78	0.173000	0.413200	0.055800
H791	H79	0.026300	0.475600	0.053800
H801	H80	0.771200	0.029200	0.358000
C11	C1	0.229000	0.668600	0.960400
C21	C2	0.261600	0.952400	0.771000
C31	C3	0.350200	0.502000	0.530700
C41	C4	0.272300	0.899200	0.760500
C51	C5	0.287400	0.206400	0.768600
C61	C6	0.258800	0.028600	0.809700
C71	C7	0.280900	0.191200	0.799400
C81	C8	0.258100	0.751800	0.582700
C91	C9	0.267020	0.709840	0.562020
C101	C10	0.331630	0.710460	0.559790
C111	C11	0.387300	0.753000	0.578200
C121	C12	0.378500	0.795000	0.598850
C131	C13	0.313900	0.794400	0.601080
C141	C14	0.270800	0.129800	0.809400
C151	C15	0.276800	0.236000	0.822770
C161	C16	0.334000	0.294800	0.829400
C171	C17	0.328700	0.337400	0.850900
C181	C18	0.266300	0.321200	0.865720
C191	C19	0.209000	0.262400	0.859100
C201	C20	0.214350	0.219900	0.837600
C211	C21	0.260300	0.368400	0.888800
C221	C22	0.318800	0.410000	0.906100
C231	C23	0.314600	0.454200	0.926800
C241	C24	0.251800	0.456800	0.930300
C251	C25	0.193400	0.415400	0.913100
C261	C26	0.197500	0.371000	0.892300
C271	C27	0.301000	0.266600	0.728000
C281	C28	0.300100	0.032600	0.680400
C291	C29	0.344500	0.666600	0.536200
C301	C30	0.294100	0.267200	0.758900
C311	C31	0.302600	0.050800	0.648300
C321	C32	0.258500	0.973600	0.799800
C331	C33	0.300400	0.127400	0.677900
C341	C34	0.315800	0.236200	0.665800
C351	C35	0.379000	0.288600	0.660000
C361	C36	0.382900	0.328800	0.636900
C371	C37	0.323800	0.316800	0.619600
C381	C38	0.260600	0.264400	0.625400
C391	C39	0.256600	0.224200	0.648500
C401	C40	0.303800	0.184800	0.688900
C411	C41	0.275600	0.956800	0.721200
C421	C42	0.247500	0.847400	0.869500
C431	C43	0.311300	0.898800	0.863300
C441	C44	0.315200	0.940000	0.840800
C451	C45	0.255500	0.930200	0.824500
C461	C46	0.191800	0.879000	0.830700
C471	C47	0.187900	0.837600	0.853200
C481	C48	0.275500	0.896600	0.728700
C491	C49	0.299900	0.205400	0.718200
C501	C50	0.263900	0.109200	0.840700
C511	C51	0.303700	0.109400	0.647300
C521	C52	0.303800	0.841400	0.623530
C531	C53	0.359600	0.901200	0.629600
C541	C54	0.352910	0.943820	0.650600
C551	C55	0.290200	0.926600	0.665440
C561	C56	0.234400	0.866800	0.659300
C571	C57	0.241150	0.824100	0.638400
C581	C58	0.282800	0.970600	0.689500
C591	C59	0.292700	0.745600	0.919400
C601	C60	0.231800	0.712400	0.935200
C611	C61	0.174200	0.722600	0.929900
C621	C62	0.177600	0.766200	0.908800
C631	C63	0.238700	0.799600	0.892900
C641	C64	0.296300	0.789400	0.898200
C651	C65	0.399500	0.405000	0.583500
C661	C66	0.334700	0.365000	0.595000
C671	C67	0.275300	0.368000	0.584700
C681	C68	0.280800	0.411200	0.562900
C691	C69	0.345600	0.451200	0.551400
C701	C70	0.405000	0.448200	0.561700
C711	C71	0.259900	0.051800	0.840300
C721	C72	0.247000	0.504800	0.952300
C731	C73	0.439600	0.668600	0.460400
C741	C74	0.690800	0.952400	0.271000
C751	C75	0.151800	0.502000	0.030700
C761	C76	0.626900	0.899200	0.260500
C771	C77	0.919000	0.206400	0.268600
C781	C78	0.769800	0.028600	0.309700
C791	C79	0.910300	0.191200	0.299400
C801	C80	0.493700	0.751800	0.082700
C811	C81	0.442820	0.709840	0.062020
C821	C82	0.378830	0.710460	0.059790
C831	C83	0.365700	0.753000	0.078200
C841	C84	0.416500	0.795000	0.098850
C851	C85	0.480500	0.794400	0.101080
C861	C86	0.859000	0.129800	0.309400
C871	C87	0.959200	0.236000	0.322770
C881	C88	0.960800	0.294800	0.329400
C891	C89	0.008700	0.337400	0.350900
C901	C90	0.054900	0.321200	0.365720
C911	C91	0.053400	0.262400	0.359100
C921	C92	0.005550	0.219900	0.337600
C931	C93	0.108100	0.368400	0.388800
C941	C94	0.091200	0.410000	0.406100
C951	C95	0.139600	0.454200	0.426800
C961	C96	0.205000	0.456800	0.430300
C971	C97	0.222000	0.415400	0.413100
C981	C98	0.173500	0.371000	0.392300
C991	C99	0.965600	0.266600	0.228000
C1001	C100	0.732500	0.032600	0.180400
C1011	C101	0.322100	0.666600	0.036200
C1021	C102	0.973100	0.267200	0.258900
C1031	C103	0.748200	0.050800	0.148300
C1041	C104	0.715100	0.973600	0.299800
C1051	C105	0.827000	0.127400	0.177900
C1061	C106	0.920400	0.236200	0.165800
C1071	C107	0.909600	0.288600	0.160000
C1081	C108	0.945900	0.328800	0.136900
C1091	C109	0.993000	0.316800	0.119600
C1101	C110	0.003800	0.264400	0.125400
C1111	C111	0.967600	0.224200	0.148500
C1121	C112	0.881000	0.184800	0.188900
C1131	C113	0.681200	0.956800	0.221200
C1141	C114	0.599900	0.847400	0.369500
C1151	C115	0.587500	0.898800	0.363300
C1161	C116	0.624800	0.940000	0.340800
C1171	C117	0.674700	0.930200	0.324500
C1181	C118	0.687200	0.879000	0.330700
C1191	C119	0.649700	0.837600	0.353200
C1201	C120	0.621100	0.896600	0.228700
C1211	C121	0.905500	0.205400	0.218200
C1221	C122	0.845300	0.109200	0.340700
C1231	C123	0.805700	0.109400	0.147300
C1241	C124	0.537600	0.841400	0.123530
C1251	C125	0.541600	0.901200	0.129600
C1261	C126	0.590910	0.943820	0.150600
C1271	C127	0.636400	0.926600	0.165440
C1281	C128	0.632400	0.866800	0.159300
C1291	C129	0.582950	0.824100	0.138400
C1301	C130	0.687800	0.970600	0.189500
C1311	C131	0.452900	0.745600	0.419400
C1321	C132	0.480600	0.712400	0.435200
C1331	C133	0.548400	0.722600	0.429900
C1341	C134	0.588600	0.766200	0.408800
C1351	C135	0.560900	0.799600	0.392900
C1361	C136	0.493100	0.789400	0.398200
C1371	C137	0.005500	0.405000	0.083500
C1381	C138	0.030300	0.365000	0.095000
C1391	C139	0.092700	0.368000	0.084700
C1401	C140	0.130400	0.411200	0.062900
C1411	C141	0.105600	0.451200	0.051400
C1421	C142	0.043200	0.448200	0.061700
C1431	C143	0.791900	0.051800	0.340300
C1441	C144	0.257800	0.504800	0.452300
N11	N1	0.267900	0.075000	0.790500
N21	N2	0.293900	0.080000	0.696900
N31	N3	0.292000	0.171200	0.744200
N41	N4	0.266600	0.988200	0.743400
N51	N5	0.807100	0.075000	0.290500
N61	N6	0.786100	0.080000	0.196900
N71	N7	0.879200	0.171200	0.244200
N81	N8	0.721600	0.988200	0.243400
O11	O1	0.187400	0.506000	0.955800
O21	O2	0.282200	0.657400	0.960300
O31	O3	0.397700	0.664200	0.533900
O41	O4	0.298700	0.507800	0.526700
O51	O5	0.176800	0.638000	0.974000
O61	O6	0.291100	0.631000	0.518900
O71	O7	0.402200	0.537800	0.520400
O81	O8	0.300900	0.540600	0.967700
O91	O9	0.318600	0.506000	0.455800
O101	O10	0.375200	0.657400	0.460300
O111	O11	0.266500	0.664200	0.033900
O121	O12	0.209100	0.507800	0.026700
O131	O13	0.461200	0.638000	0.474000
O141	O14	0.339900	0.631000	0.018900
O151	O15	0.135600	0.537800	0.020400
O161	O16	0.239700	0.540600	0.467700
In51	In5	0.086340	0.085180	0.369530
In61	In6	0.039900	0.585280	0.618400
In71	In7	0.998840	0.085180	0.869530
In81	In8	0.545380	0.585280	0.118400
H811	H81	0.003800	0.679000	0.510300
H821	H82	0.014900	0.751400	0.473200
H831	H83	0.172400	0.892200	0.523200
H841	H84	0.161200	0.819600	0.560300
H851	H85	0.054800	0.380600	0.649400
H861	H86	0.075000	0.383600	0.593400
H871	H87	0.184500	0.247400	0.450400
H881	H88	0.182200	0.323400	0.485800
H891	H89	0.983500	0.275000	0.459200
H901	H90	0.985900	0.199200	0.423800
H911	H91	0.040700	0.801400	0.644300
H921	H92	0.103900	0.546400	0.506200
H931	H93	0.117700	0.656800	0.508400
H941	H94	0.912800	0.838800	0.760700
H951	H95	0.123100	0.922000	0.771400
H961	H96	0.118500	0.997800	0.806200
H971	H97	0.908200	0.914600	0.795500
H981	H98	0.196600	0.917600	0.466500
H991	H99	0.196800	0.990000	0.431500
H1001	H100	0.985600	0.906600	0.432200
H1011	H101	0.985400	0.834200	0.467300
H1021	H102	0.181300	0.417000	0.495900
H1031	H103	0.177400	0.492400	0.531400
H1041	H104	0.972000	0.376800	0.543800
H1051	H105	0.976000	0.301600	0.508400
H1061	H106	0.928500	0.293800	0.720600
H1071	H107	0.937800	0.366600	0.684000
H1081	H108	0.118700	0.497600	0.724300
H1091	H109	0.109500	0.424800	0.760900
H1101	H110	0.054600	0.803400	0.588500
H1111	H111	0.025500	0.643000	0.732900
H1121	H112	0.908600	0.250000	0.761800
H1131	H113	0.900800	0.174600	0.796700
H1141	H114	0.110700	0.266400	0.809600
H1151	H115	0.118500	0.341800	0.774700
H1161	H116	0.930300	0.731200	0.682300
H1171	H117	0.925800	0.802600	0.719900
H1181	H118	0.112900	0.831200	0.754300
H1191	H119	0.117400	0.759800	0.716700
H1201	H120	0.017400	0.534400	0.732300
H1211	H121	0.675200	0.679000	0.010300
H1221	H122	0.736500	0.751400	0.973200
H1231	H123	0.719800	0.892200	0.023200
H1241	H124	0.658400	0.819600	0.060300
H1251	H125	0.325800	0.380600	0.149400
H1261	H126	0.308600	0.383600	0.093400
H1271	H127	0.062900	0.247400	0.950400
H1281	H128	0.141200	0.323400	0.985800
H1291	H129	0.291500	0.275000	0.959200
H1301	H130	0.213300	0.199200	0.923800
H1311	H131	0.760700	0.801400	0.144300
H1321	H132	0.442500	0.546400	0.006200
H1331	H133	0.539100	0.656800	0.008400
H1341	H134	0.926000	0.838800	0.260700
H1351	H135	0.798900	0.922000	0.271400
H1361	H136	0.879300	0.997800	0.306200
H1371	H137	0.006400	0.914600	0.295500
H1381	H138	0.721000	0.917600	0.966500
H1391	H139	0.793200	0.990000	0.931500
H1401	H140	0.921000	0.906600	0.932200
H1411	H141	0.848800	0.834200	0.967300
H1421	H142	0.235700	0.417000	0.995900
H1431	H143	0.315000	0.492400	0.031400
H1441	H144	0.404800	0.376800	0.043800
H1451	H145	0.325600	0.301600	0.008400
H1461	H146	0.365300	0.293800	0.220600
H1471	H147	0.428800	0.366600	0.184000
H1481	H148	0.378900	0.497600	0.224300
H1491	H149	0.315300	0.424800	0.260900
H1501	H150	0.748800	0.803400	0.088500
H1511	H151	0.617500	0.643000	0.232900
H1521	H152	0.341400	0.250000	0.261800
H1531	H153	0.273800	0.174600	0.296700
H1541	H154	0.155700	0.266400	0.309600
H1551	H155	0.223300	0.341800	0.274700
H1561	H156	0.800900	0.731200	0.182300
H1571	H157	0.876800	0.802600	0.219900
H1581	H158	0.718300	0.831200	0.254300
H1591	H159	0.642400	0.759800	0.216700
H1601	H160	0.517000	0.534400	0.232300
C1451	C145	0.078200	0.546200	0.554300
C1461	C146	0.030700	0.540000	0.684800
C1471	C147	0.081550	0.742500	0.538790
C1481	C148	0.038020	0.722240	0.512900
C1491	C149	0.044700	0.765400	0.490910
C1501	C150	0.094600	0.828600	0.494720
C1511	C151	0.138160	0.848920	0.520600
C1521	C152	0.131500	0.805800	0.542600
C1531	C153	0.077400	0.639600	0.553100
C1541	C154	0.014800	0.009400	0.827900
C1551	C155	0.075500	0.697600	0.563100
C1561	C156	0.058100	0.466200	0.594900
C1571	C157	0.056400	0.412200	0.636200
C1581	C158	0.065400	0.412800	0.605500
C1591	C159	0.059800	0.715200	0.592900
C1601	C160	0.049600	0.468200	0.645100
C1611	C161	0.143700	0.253000	0.452200
C1621	C162	0.142400	0.298200	0.473200
C1631	C163	0.082700	0.306400	0.475870
C1641	C164	0.024300	0.269400	0.457400
C1651	C165	0.025700	0.224400	0.436370
C1661	C166	0.085370	0.216140	0.433730
C1671	C167	0.045200	0.769600	0.631800
C1681	C168	0.067800	0.487600	0.564700
C1691	C169	0.044400	0.712400	0.642900
C1701	C170	0.096700	0.568600	0.523300
C1711	C171	0.101200	0.627800	0.524400
C1721	C172	0.954500	0.871000	0.769900
C1731	C173	0.018400	0.873200	0.762800
C1741	C174	0.079500	0.920600	0.776300
C1751	C175	0.076800	0.965600	0.796900
C1761	C176	0.012900	0.963400	0.804100
C1771	C177	0.951800	0.916200	0.790600
C1781	C178	0.090900	0.869000	0.470190
C1791	C179	0.153800	0.915400	0.459600
C1801	C180	0.153860	0.958320	0.438700
C1811	C181	0.091200	0.955000	0.428560
C1821	C182	0.028400	0.908800	0.439200
C1831	C183	0.028300	0.865800	0.460000
C1841	C184	0.036900	0.637000	0.684700
C1851	C185	0.031800	0.483200	0.676200
C1861	C186	0.079020	0.352240	0.498840
C1871	C187	0.138900	0.409000	0.505660
C1881	C188	0.136500	0.453600	0.526710
C1891	C189	0.074310	0.441620	0.540930
C1901	C190	0.014500	0.385000	0.534110
C1911	C191	0.016830	0.340260	0.513100
C1921	C192	0.967050	0.335100	0.721300
C1931	C193	0.972600	0.378400	0.699580
C1941	C194	0.029100	0.439000	0.700670
C1951	C195	0.080100	0.456200	0.723500
C1961	C196	0.074600	0.413000	0.745280
C1971	C197	0.018100	0.352400	0.744200
C1981	C198	0.053300	0.771600	0.601500
C1991	C199	0.031700	0.692000	0.674400
C2001	C200	0.028100	0.618800	0.715500
C2011	C201	0.014300	0.303000	0.764930
C2021	C202	0.949700	0.253400	0.771500
C2031	C203	0.945000	0.208600	0.792200
C2041	C204	0.005000	0.213400	0.806410
C2051	C205	0.069700	0.263200	0.799900
C2061	C206	0.074300	0.307800	0.779100
C2071	C207	0.024300	0.738800	0.696000
C2081	C208	0.967400	0.751400	0.696900
C2091	C209	0.964700	0.793800	0.719200
C2101	C210	0.018900	0.823600	0.740620
C2111	C211	0.075800	0.810800	0.739700
C2121	C212	0.078500	0.768400	0.717400
C2131	C213	0.023900	0.559200	0.714900
C2141	C214	0.000600	0.166000	0.830700
C2151	C215	0.086600	0.167000	0.412800
C2161	C216	0.084700	0.999800	0.405700
C2171	C217	0.468000	0.546200	0.054300
C2181	C218	0.509300	0.540000	0.184800
C2191	C219	0.660950	0.742500	0.038790
C2201	C220	0.684220	0.722240	0.012900
C2211	C221	0.720700	0.765400	0.990910
C2221	C222	0.734000	0.828600	0.994720
C2231	C223	0.710760	0.848920	0.020600
C2241	C224	0.674300	0.805800	0.042600
C2251	C225	0.562200	0.639600	0.053100
C2261	C226	0.994600	0.009400	0.327900
C2271	C227	0.622100	0.697600	0.063100
C2281	C228	0.408100	0.466200	0.094900
C2291	C229	0.355800	0.412200	0.136200
C2301	C230	0.347400	0.412800	0.105500
C2311	C231	0.655400	0.715200	0.092900
C2321	C232	0.418600	0.468200	0.145100
C2331	C233	0.109300	0.253000	0.952200
C2341	C234	0.155800	0.298200	0.973200
C2351	C235	0.223700	0.306400	0.975870
C2361	C236	0.245100	0.269400	0.957400
C2371	C237	0.198700	0.224400	0.936370
C2381	C238	0.130770	0.216140	0.933730
C2391	C239	0.724400	0.769600	0.131800
C2401	C240	0.419800	0.487600	0.064700
C2411	C241	0.668000	0.712400	0.142900
C2421	C242	0.471900	0.568600	0.023300
C2431	C243	0.526600	0.627800	0.024400
C2441	C244	0.916500	0.871000	0.269900
C2451	C245	0.854800	0.873200	0.262800
C2461	C246	0.841100	0.920600	0.276300
C2471	C247	0.888800	0.965600	0.296900
C2481	C248	0.950500	0.963400	0.304100
C2491	C249	0.964400	0.916200	0.290600
C2501	C250	0.778100	0.869000	0.970190
C2511	C251	0.761600	0.915400	0.959600
C2521	C252	0.804460	0.958320	0.938700
C2531	C253	0.863800	0.955000	0.928560
C2541	C254	0.880400	0.908800	0.939200
C2551	C255	0.837500	0.865800	0.960000
C2561	C256	0.600100	0.637000	0.184700
C2571	C257	0.451400	0.483200	0.176200
C2581	C258	0.273220	0.352240	0.998840
C2591	C259	0.270100	0.409000	0.005660
C2601	C260	0.317100	0.453600	0.026710
C2611	C261	0.367310	0.441620	0.040930
C2621	C262	0.370500	0.385000	0.034110
C2631	C263	0.323430	0.340260	0.013100
C2641	C264	0.368050	0.335100	0.221300
C2651	C265	0.405800	0.378400	0.199580
C2661	C266	0.409900	0.439000	0.200670
C2671	C267	0.376100	0.456200	0.223500
C2681	C268	0.338400	0.413000	0.245280
C2691	C269	0.334300	0.352400	0.244200
C2701	C270	0.718300	0.771600	0.101500
C2711	C271	0.660300	0.692000	0.174400
C2721	C272	0.590700	0.618800	0.215500
C2731	C273	0.288700	0.303000	0.264930
C2741	C274	0.303700	0.253400	0.271500
C2751	C275	0.263600	0.208600	0.292200
C2761	C276	0.208400	0.213400	0.306410
C2771	C277	0.193500	0.263200	0.299900
C2781	C278	0.233500	0.307800	0.279100
C2791	C279	0.714500	0.738800	0.196000
C2801	C280	0.784000	0.751400	0.196900
C2811	C281	0.829100	0.793800	0.219200
C2821	C282	0.804700	0.823600	0.240620
C2831	C283	0.735000	0.810800	0.239700
C2841	C284	0.689900	0.768400	0.217400
C2851	C285	0.535300	0.559200	0.214900
C2861	C286	0.165400	0.166000	0.330700
C2871	C287	0.080400	0.167000	0.912800
C2881	C288	0.915100	0.999800	0.905700
N91	N9	0.055000	0.678000	0.617300
N101	N10	0.068500	0.589000	0.570900
N111	N11	0.050800	0.503600	0.619400
N121	N12	0.040300	0.589200	0.666000
N131	N13	0.623000	0.678000	0.117300
N141	N14	0.520500	0.589000	0.070900
N151	N15	0.452800	0.503600	0.119400
N161	N16	0.548900	0.589200	0.166000
O171	O17	0.141500	0.163800	0.408700
O181	O18	0.032800	0.004800	0.402100
O191	O19	0.051800	0.162800	0.837700
O201	O20	0.065700	0.043400	0.843100
O211	O21	0.035100	0.132400	0.396200
O221	O22	0.141400	0.035400	0.392400
O231	O23	0.957400	0.011400	0.831100
O241	O24	0.936400	0.131600	0.841000
O251	O25	0.022300	0.163800	0.908700
O261	O26	0.972000	0.004800	0.902100
O271	O27	0.111000	0.162800	0.337700
O281	O28	0.977700	0.043400	0.343100
O291	O29	0.097300	0.132400	0.896200
O301	O30	0.894000	0.035400	0.892400
O311	O31	0.054000	0.011400	0.331100
O321	O32	0.195200	0.131600	0.341000
In91	In9	0.775360	0.638960	0.938530
In101	In10	0.796340	0.130600	0.687960
In111	In11	0.863600	0.638960	0.438530
In121	In12	0.334260	0.130600	0.187960
H1611	H161	0.799400	0.343400	0.659300
H1621	H162	0.793500	0.341800	0.714200
H1631	H163	0.781700	0.914200	0.717800
H1641	H164	0.872800	0.901600	0.847000
H1651	H165	0.873500	0.827400	0.880700
H1661	H166	0.663900	0.724800	0.870000
H1671	H167	0.663200	0.799000	0.836300
H1681	H168	0.850100	0.280200	0.793600
H1691	H169	0.849700	0.355400	0.830100
H1701	H170	0.673200	0.342800	0.790900
H1711	H171	0.673800	0.267800	0.754400
H1721	H172	0.736200	0.159800	0.798600
H1731	H173	0.736500	0.057400	0.799200
H1741	H174	0.835800	0.088000	0.576900
H1751	H175	0.684300	0.830400	0.787800
H1761	H176	0.839300	0.977600	0.835700
H1771	H177	0.843800	0.047000	0.798100
H1781	H178	0.688800	0.899800	0.750200
H1791	H179	0.809600	0.177200	0.571700
H1801	H180	0.902900	0.349800	0.622800
H1811	H181	0.910300	0.421600	0.586000
H1821	H182	0.724200	0.292200	0.549300
H1831	H183	0.716700	0.220200	0.586100
H1841	H184	0.874100	0.540800	0.871600
H1851	H185	0.872100	0.462600	0.836400
H1861	H186	0.661000	0.370800	0.839200
H1871	H187	0.663000	0.449000	0.874400
H1881	H188	0.926200	0.938400	0.582700
H1891	H189	0.915000	0.009800	0.618400
H1901	H190	0.711500	0.941000	0.593400
H1911	H191	0.722700	0.869800	0.557800
H1921	H192	0.930200	0.450000	0.540900
H1931	H193	0.945700	0.528200	0.506300
H1941	H194	0.736200	0.460400	0.498900
H1951	H195	0.720700	0.382200	0.533500
H1961	H196	0.763500	0.777200	0.480300
H1971	H197	0.929100	0.780400	0.525600
H1981	H198	0.922900	0.851600	0.562800
H1991	H199	0.757300	0.848400	0.517500
H2001	H200	0.834100	0.937800	0.667900
H2011	H201	0.544000	0.343400	0.159300
H2021	H202	0.548300	0.341800	0.214200
H2031	H203	0.132500	0.914200	0.217800
H2041	H204	0.028800	0.901600	0.347000
H2051	H205	0.953900	0.827400	0.380700
H2061	H206	0.060900	0.724800	0.370000
H2071	H207	0.135800	0.799000	0.336300
H2081	H208	0.430100	0.280200	0.293600
H2091	H209	0.505700	0.355400	0.330100
H2101	H210	0.669600	0.342800	0.290900
H2111	H211	0.594000	0.267800	0.254400
H2121	H212	0.423600	0.159800	0.298600
H2131	H213	0.320900	0.057400	0.299200
H2141	H214	0.252200	0.088000	0.076900
H2151	H215	0.146100	0.830400	0.287800
H2161	H216	0.138300	0.977600	0.335700
H2171	H217	0.203200	0.047000	0.298100
H2181	H218	0.211000	0.899800	0.250200
H2191	H219	0.367600	0.177200	0.071700
H2201	H220	0.446900	0.349800	0.122800
H2211	H221	0.511300	0.421600	0.086000
H2221	H222	0.568000	0.292200	0.049300
H2231	H223	0.503500	0.220200	0.086100
H2241	H224	0.666700	0.540800	0.371600
H2251	H225	0.590500	0.462600	0.336400
H2261	H226	0.709800	0.370800	0.339200
H2271	H227	0.786000	0.449000	0.374400
H2281	H228	0.012200	0.938400	0.082700
H2291	H229	0.094800	0.009800	0.118400
H2301	H230	0.229500	0.941000	0.093400
H2311	H231	0.147100	0.869800	0.057800
H2321	H232	0.519800	0.450000	0.040900
H2331	H233	0.582500	0.528200	0.006300
H2341	H234	0.724200	0.460400	0.998900
H2351	H235	0.661500	0.382200	0.033500
H2361	H236	0.013700	0.777200	0.980300
H2371	H237	0.851300	0.780400	0.025600
H2381	H238	0.928700	0.851600	0.062800
H2391	H239	0.091100	0.848400	0.017500
H2401	H240	0.103700	0.937800	0.167900
C2891	C289	0.778900	0.025800	0.745900
C2901	C290	0.803200	0.173800	0.620800
C2911	C291	0.770900	0.078000	0.753900
C2921	C292	0.767000	0.721600	0.899600
C2931	C293	0.782000	0.003800	0.714900
C2941	C294	0.759400	0.167400	0.751800
C2951	C295	0.798300	0.310800	0.671600
C2961	C296	0.792400	0.307200	0.702000
C2971	C297	0.771300	0.552000	0.900200
C2981	C298	0.790400	0.950200	0.706200
C2991	C299	0.768000	0.857400	0.838500
C3001	C300	0.830400	0.865800	0.851700
C3011	C301	0.830800	0.821600	0.871700
C3021	C302	0.768800	0.769200	0.878500
C3031	C303	0.706200	0.760600	0.865300
C3041	C304	0.705900	0.804800	0.845300
C3051	C305	0.805400	0.010600	0.662700
C3061	C306	0.805000	0.232600	0.632000
C3071	C307	0.801100	0.080400	0.622000
C3081	C308	0.762000	0.267000	0.770600
C3091	C309	0.814300	0.293000	0.793100
C3101	C310	0.814000	0.337600	0.814700
C3111	C311	0.761400	0.356200	0.813900
C3121	C312	0.709200	0.330200	0.791400
C3131	C313	0.709500	0.285600	0.769800
C3141	C314	0.745900	0.139800	0.781300
C3151	C315	0.784700	0.252200	0.715200
C3161	C316	0.747900	0.085000	0.782700
C3171	C317	0.819200	0.106000	0.592700
C3181	C318	0.770100	0.229400	0.744300
C3191	C319	0.716700	0.874400	0.789900
C3201	C320	0.761300	0.897400	0.815300
C3211	C321	0.808700	0.961800	0.818400
C3221	C322	0.811400	0.003000	0.796000
C3231	C323	0.766600	0.979800	0.770600
C3241	C324	0.719300	0.915600	0.767600
C3251	C325	0.810600	0.156800	0.589800
C3261	C326	0.809600	0.031000	0.633100
C3271	C327	0.809100	0.278200	0.607900
C3281	C328	0.866600	0.338000	0.607900
C3291	C329	0.871000	0.380800	0.586100
C3301	C330	0.817900	0.363600	0.564200
C3311	C331	0.760400	0.303800	0.564200
C3321	C332	0.756000	0.261200	0.586100
C3331	C333	0.830800	0.506200	0.865000
C3341	C334	0.829700	0.459800	0.844100
C3351	C335	0.766300	0.409200	0.834500
C3361	C336	0.704300	0.405400	0.845800
C3371	C337	0.705500	0.451800	0.866700
C3381	C338	0.768700	0.502200	0.876300
C3391	C339	0.802500	0.254400	0.662100
C3401	C340	0.825500	0.897400	0.566900
C3411	C341	0.882600	0.939000	0.584900
C3421	C342	0.876000	0.981400	0.606100
C3431	C343	0.812300	0.982200	0.609200
C3441	C344	0.755100	0.940600	0.591200
C3451	C345	0.761800	0.898200	0.570100
C3461	C346	0.824000	0.408800	0.540400
C3471	C347	0.890800	0.452200	0.532400
C3481	C348	0.900000	0.498600	0.511800
C3491	C349	0.842400	0.501600	0.499300
C3501	C350	0.775500	0.458200	0.507400
C3511	C351	0.766300	0.411800	0.528000
C3521	C352	0.850100	0.724600	0.478400
C3531	C353	0.846800	0.550200	0.477000
C3541	C354	0.795900	0.792400	0.497000
C3551	C355	0.847000	0.772200	0.499400
C3561	C356	0.894300	0.794200	0.523900
C3571	C357	0.890500	0.836400	0.546000
C3581	C358	0.839500	0.856600	0.543600
C3591	C359	0.792200	0.834600	0.519100
C3601	C360	0.813400	0.961400	0.677700
C3611	C361	0.246900	0.025800	0.245900
C3621	C362	0.370600	0.173800	0.120800
C3631	C363	0.307100	0.078000	0.253900
C3641	C364	0.954600	0.721600	0.399600
C3651	C365	0.221800	0.003800	0.214900
C3661	C366	0.408000	0.167400	0.251800
C3671	C367	0.512500	0.310800	0.171600
C3681	C368	0.514800	0.307200	0.202000
C3691	C369	0.780700	0.552000	0.400200
C3701	C370	0.159800	0.950200	0.206200
C3711	C371	0.089400	0.857400	0.338500
C3721	C372	0.035400	0.865800	0.351700
C3731	C373	0.990800	0.821600	0.371700
C3741	C374	0.000400	0.769200	0.378500
C3751	C375	0.054400	0.760600	0.365300
C3761	C376	0.098900	0.804800	0.345300
C3771	C377	0.205200	0.010600	0.162700
C3781	C378	0.427600	0.232600	0.132000
C3791	C379	0.279300	0.080400	0.122000
C3801	C380	0.505000	0.267000	0.270600
C3811	C381	0.478700	0.293000	0.293100
C3821	C382	0.523600	0.337600	0.314700
C3831	C383	0.594800	0.356200	0.313900
C3841	C384	0.621000	0.330200	0.291400
C3851	C385	0.576100	0.285600	0.269800
C3861	C386	0.393900	0.139800	0.281300
C3871	C387	0.467500	0.252200	0.215200
C3881	C388	0.337100	0.085000	0.282700
C3891	C389	0.286800	0.106000	0.092700
C3901	C390	0.459300	0.229400	0.244300
C3911	C391	0.157700	0.874400	0.289900
C3921	C392	0.136100	0.897400	0.315300
C3931	C393	0.153100	0.961800	0.318400
C3941	C394	0.191600	0.003000	0.296000
C3951	C395	0.213200	0.979800	0.270600
C3961	C396	0.196300	0.915600	0.267600
C3971	C397	0.346200	0.156800	0.089800
C3981	C398	0.221400	0.031000	0.133100
C3991	C399	0.469100	0.278200	0.107900
C4001	C400	0.471400	0.338000	0.107900
C4011	C401	0.509800	0.380800	0.086100
C4021	C402	0.545700	0.363600	0.064200
C4031	C403	0.543400	0.303800	0.064200
C4041	C404	0.505200	0.261200	0.086100
C4051	C405	0.675400	0.506200	0.365000
C4061	C406	0.630100	0.459800	0.344100
C4071	C407	0.642900	0.409200	0.334500
C4081	C408	0.701100	0.405400	0.345800
C4091	C409	0.746300	0.451800	0.366700
C4101	C410	0.733500	0.502200	0.376300
C4111	C411	0.451900	0.254400	0.162100
C4121	C412	0.071900	0.897400	0.066900
C4131	C413	0.056400	0.939000	0.084900
C4141	C414	0.105400	0.981400	0.106100
C4151	C415	0.169900	0.982200	0.109200
C4161	C416	0.185500	0.940600	0.091200
C4171	C417	0.136400	0.898200	0.070100
C4181	C418	0.584800	0.408800	0.040400
C4191	C419	0.561400	0.452200	0.032400
C4201	C420	0.598600	0.498600	0.011800
C4211	C421	0.659200	0.501600	0.999300
C4221	C422	0.682700	0.458200	0.007400
C4231	C423	0.645500	0.411800	0.028000
C4241	C424	0.874500	0.724600	0.978400
C4251	C425	0.703400	0.550200	0.977000
C4261	C426	0.996500	0.792400	0.997000
C4271	C427	0.925200	0.772200	0.999400
C4281	C428	0.899900	0.794200	0.023900
C4291	C429	0.945900	0.836400	0.046000
C4301	C430	0.017100	0.856600	0.043600
C4311	C431	0.042400	0.834600	0.019100
C4321	C432	0.148000	0.961400	0.177700
N171	N17	0.775600	0.123000	0.735600
N181	N18	0.798700	0.125800	0.640500
N191	N19	0.788600	0.039200	0.689100
N201	N20	0.794300	0.222000	0.688600
N211	N21	0.347400	0.123000	0.235600
N221	N22	0.327100	0.125800	0.140500
N231	N23	0.250600	0.039200	0.189100
N241	N24	0.427700	0.222000	0.188600
O331	O33	0.828700	0.592000	0.911900
O341	O34	0.822500	0.717000	0.904400
O351	O35	0.725100	0.690400	0.918400
O361	O36	0.715000	0.557200	0.904200
O371	O37	0.897100	0.710600	0.476700
O381	O38	0.791400	0.555400	0.469400
O391	O39	0.812200	0.698400	0.458100
O401	O40	0.906900	0.593200	0.467800
O411	O41	0.763300	0.592000	0.411900
O421	O42	0.894500	0.717000	0.404400
O431	O43	0.965300	0.690400	0.418400
O441	O44	0.842200	0.557200	0.404200
O451	O45	0.813500	0.710600	0.976700
O461	O46	0.764000	0.555400	0.969400
O471	O47	0.886200	0.698400	0.958100
O481	O48	0.686300	0.593200	0.967800
In131	In13	0.532450	0.521340	0.840680
In141	In14	0.453170	0.009560	0.088680
In151	In15	0.988890	0.521340	0.340680
In161	In16	0.556390	0.009560	0.588680
H2411	H241	0.451200	0.114200	0.647600
H2421	H242	0.446900	0.190200	0.682300
H2431	H243	0.655700	0.265800	0.697100
H2441	H244	0.660000	0.189800	0.662300
H2451	H245	0.535400	0.308400	0.810600
H2461	H246	0.531900	0.730200	0.812200
H2471	H247	0.590800	0.838600	0.002500
H2481	H248	0.576200	0.908200	0.038000
H2491	H249	0.373000	0.835400	0.011800
H2501	H250	0.387600	0.765800	0.976300
H2511	H251	0.446200	0.229800	0.728500
H2521	H252	0.442400	0.304400	0.764400
H2531	H253	0.645700	0.423600	0.749200
H2541	H254	0.649300	0.348800	0.713400
H2551	H255	0.568200	0.172400	0.019300
H2561	H256	0.575300	0.246400	0.983700
H2571	H257	0.366400	0.183200	0.988100
H2581	H258	0.359400	0.109400	0.023700
H2591	H259	0.383400	0.219200	0.938600
H2601	H260	0.397800	0.294600	0.902600
H2611	H261	0.584200	0.415800	0.942200
H2621	H262	0.569700	0.340400	0.978200
H2631	H263	0.484100	0.457600	0.954200
H2641	H264	0.504800	0.300800	0.865700
H2651	H265	0.516500	0.575800	0.955300
H2661	H266	0.567500	0.577800	0.725800
H2671	H267	0.461800	0.776800	0.694600
H2681	H268	0.462600	0.846000	0.657600
H2691	H269	0.670600	0.910000	0.647900
H2701	H270	0.669800	0.840800	0.684900
H2711	H271	0.561500	0.470800	0.725700
H2721	H272	0.529400	0.735600	0.869800
H2731	H273	0.663800	0.702000	0.748600
H2741	H274	0.663300	0.767400	0.710000
H2751	H275	0.467800	0.734200	0.732800
H2761	H276	0.468200	0.668600	0.771400
H2771	H277	0.413300	0.608200	0.930300
H2781	H278	0.399400	0.676000	0.967200
H2791	H279	0.601200	0.806200	0.957700
H2801	H280	0.615000	0.738400	0.920800
H2811	H281	0.663000	0.114200	0.147600
H2821	H282	0.743300	0.190200	0.182300
H2831	H283	0.610100	0.265800	0.197100
H2841	H284	0.529800	0.189800	0.162300
H2851	H285	0.773000	0.308400	0.310600
H2861	H286	0.198300	0.730200	0.312200
H2871	H287	0.247800	0.838600	0.502500
H2881	H288	0.332000	0.908200	0.538000
H2891	H289	0.462400	0.835400	0.511800
H2901	H290	0.378200	0.765800	0.476300
H2911	H291	0.783600	0.229800	0.228500
H2921	H292	0.862000	0.304400	0.264400
H2931	H293	0.777900	0.423600	0.249200
H2941	H294	0.699500	0.348800	0.213400
H2951	H295	0.604200	0.172400	0.519300
H2961	H296	0.671100	0.246400	0.483700
H2971	H297	0.816800	0.183200	0.488100
H2981	H298	0.750000	0.109400	0.523700
H2991	H299	0.835800	0.219200	0.438600
H3001	H300	0.896800	0.294600	0.402600
H3011	H301	0.831600	0.415800	0.442200
H3021	H302	0.770700	0.340400	0.478200
H3031	H303	0.973500	0.457600	0.454200
H3041	H304	0.796000	0.300800	0.365700
H3051	H305	0.059300	0.575800	0.455300
H3061	H306	0.010300	0.577800	0.225800
H3071	H307	0.315000	0.776800	0.194600
H3081	H308	0.383400	0.846000	0.157600
H3091	H309	0.239400	0.910000	0.147900
H3101	H310	0.171000	0.840800	0.184900
H3111	H311	0.909300	0.470800	0.225700
H3121	H312	0.206200	0.735600	0.369800
H3131	H313	0.038200	0.702000	0.248600
H3141	H314	0.104100	0.767400	0.210000
H3151	H315	0.266400	0.734200	0.232800
H3161	H316	0.200400	0.668600	0.271400
H3171	H317	0.194900	0.608200	0.430300
H3181	H318	0.276600	0.676000	0.467200
H3191	H319	0.205000	0.806200	0.457700
H3201	H320	0.123400	0.738400	0.420800
C4331	C433	0.563900	0.573000	0.775400
C4341	C434	0.555990	0.144780	0.651680
C4351	C435	0.492680	0.144960	0.657610
C4361	C436	0.490200	0.190200	0.678300
C4371	C437	0.550920	0.235240	0.692980
C4381	C438	0.614200	0.235000	0.687000
C4391	C439	0.616700	0.189800	0.666400
C4401	C440	0.463900	0.925400	0.051100
C4411	C441	0.516300	0.562400	0.905200
C4421	C442	0.527800	0.338200	0.823300
C4431	C443	0.507900	0.469600	0.905900
C4441	C444	0.549600	0.476400	0.774400
C4451	C445	0.533900	0.700000	0.825400
C4461	C446	0.490500	0.795600	0.986060
C4471	C447	0.546600	0.838000	0.004400
C4481	C448	0.538000	0.879400	0.025500
C4491	C449	0.473300	0.878400	0.028300
C4501	C450	0.417200	0.836000	0.009900
C4511	C451	0.425900	0.794800	0.988830
C4521	C452	0.456500	0.085800	0.048000
C4531	C453	0.548180	0.282360	0.717560
C4541	C454	0.486690	0.269180	0.732720
C4551	C455	0.484500	0.313600	0.754030
C4561	C456	0.543710	0.371020	0.760190
C4571	C457	0.605210	0.384220	0.745000
C4581	C458	0.607300	0.339800	0.723720
C4591	C459	0.463140	0.133880	0.024800
C4601	C460	0.527200	0.174600	0.012900
C4611	C461	0.531500	0.218600	0.991800
C4621	C462	0.471490	0.221780	0.982510
C4631	C463	0.407400	0.181000	0.994400
C4641	C464	0.403200	0.137200	0.015500
C4651	C465	0.475110	0.272620	0.961820
C4661	C466	0.424120	0.259040	0.939360
C4671	C467	0.432700	0.303800	0.917960
C4681	C468	0.492350	0.362300	0.919030
C4691	C469	0.543440	0.375880	0.941500
C4701	C470	0.534800	0.331000	0.962890
C4711	C471	0.529000	0.395400	0.815600
C4721	C472	0.540500	0.644400	0.815700
C4731	C473	0.497600	0.485200	0.937500
C4741	C474	0.513200	0.336000	0.853600
C4751	C475	0.540700	0.418400	0.784500
C4761	C476	0.511300	0.548000	0.938000
C4771	C477	0.529600	0.625600	0.897400
C4781	C478	0.512300	0.392000	0.864600
C4791	C479	0.531000	0.644600	0.865400
C4801	C480	0.502300	0.409000	0.895300
C4811	C481	0.564300	0.553600	0.743100
C4821	C482	0.565800	0.802400	0.693200
C4831	C483	0.504200	0.803800	0.685100
C4841	C484	0.504700	0.845000	0.663120
C4851	C485	0.566700	0.884600	0.649300
C4861	C486	0.628200	0.883000	0.657400
C4871	C487	0.627700	0.841800	0.679300
C4881	C488	0.559300	0.495400	0.743000
C4891	C489	0.560600	0.630600	0.787100
C4901	C490	0.560200	0.098200	0.629800
C4911	C491	0.531000	0.703000	0.856900
C4921	C492	0.568900	0.931800	0.625700
C4931	C493	0.566050	0.679100	0.763650
C4941	C494	0.623900	0.708400	0.745400
C4951	C495	0.623700	0.747400	0.722470
C4961	C496	0.565500	0.757000	0.717750
C4971	C497	0.507500	0.727600	0.736000
C4981	C498	0.507800	0.688600	0.758930
C4991	C499	0.515500	0.667000	0.922050
C5001	C500	0.451420	0.648440	0.935800
C5011	C501	0.443100	0.688600	0.957800
C5021	C502	0.498900	0.747400	0.965920
C5031	C503	0.562980	0.765960	0.952100
C5041	C504	0.571300	0.725800	0.930200
C5051	C505	0.009100	0.573000	0.275400
C5061	C506	0.588790	0.144780	0.151680
C5071	C507	0.652280	0.144960	0.157610
C5081	C508	0.700000	0.190200	0.178300
C5091	C509	0.684320	0.235240	0.192980
C5101	C510	0.620800	0.235000	0.187000
C5111	C511	0.573100	0.189800	0.166400
C5121	C512	0.461500	0.925400	0.551100
C5131	C513	0.046100	0.562400	0.405200
C5141	C514	0.810400	0.338200	0.323300
C5151	C515	0.961700	0.469600	0.405900
C5161	C516	0.926800	0.476400	0.274400
C5171	C517	0.166100	0.700000	0.325400
C5181	C518	0.305100	0.795600	0.486060
C5191	C519	0.291400	0.838000	0.504400
C5201	C520	0.341400	0.879400	0.525500
C5211	C521	0.405100	0.878400	0.528300
C5221	C522	0.418800	0.836000	0.509900
C5231	C523	0.368900	0.794800	0.488830
C5241	C524	0.629300	0.085800	0.548000
C5251	C525	0.734180	0.282360	0.217560
C5261	C526	0.782490	0.269180	0.232720
C5271	C527	0.829100	0.313600	0.254030
C5281	C528	0.827310	0.371020	0.260190
C5291	C529	0.779010	0.384220	0.245000
C5301	C530	0.732500	0.339800	0.223720
C5311	C531	0.670740	0.133880	0.524800
C5321	C532	0.647400	0.174600	0.512900
C5331	C533	0.687100	0.218600	0.491800
C5341	C534	0.750290	0.221780	0.482510
C5351	C535	0.773600	0.181000	0.494400
C5361	C536	0.734000	0.137200	0.515500
C5371	C537	0.797510	0.272620	0.461820
C5381	C538	0.834920	0.259040	0.439360
C5391	C539	0.871100	0.303800	0.417960
C5401	C540	0.869950	0.362300	0.419030
C5411	C541	0.832440	0.375880	0.441500
C5421	C542	0.796200	0.331000	0.462890
C5431	C543	0.866400	0.395400	0.315600
C5441	C544	0.103900	0.644400	0.315700
C5451	C545	0.987600	0.485200	0.437500
C5461	C546	0.822800	0.336000	0.353600
C5471	C547	0.877700	0.418400	0.284500
C5481	C548	0.036700	0.548000	0.438000
C5491	C549	0.096000	0.625600	0.397400
C5501	C550	0.879700	0.392000	0.364600
C5511	C551	0.113600	0.644600	0.365400
C5521	C552	0.906700	0.409000	0.395300
C5531	C553	0.989300	0.553600	0.243100
C5541	C554	0.236600	0.802400	0.193200
C5551	C555	0.299600	0.803800	0.185100
C5561	C556	0.340300	0.845000	0.163120
C5571	C557	0.317900	0.884600	0.149300
C5581	C558	0.254800	0.883000	0.157400
C5591	C559	0.214100	0.841800	0.179300
C5601	C560	0.936100	0.495400	0.243000
C5611	C561	0.070000	0.630600	0.287100
C5621	C562	0.538000	0.098200	0.129800
C5631	C563	0.172000	0.703000	0.356900
C5641	C564	0.362900	0.931800	0.125700
C5651	C565	0.113050	0.679100	0.263650
C5661	C566	0.084500	0.708400	0.245400
C5671	C567	0.123700	0.747400	0.222470
C5681	C568	0.191500	0.757000	0.217750
C5691	C569	0.220100	0.727600	0.236000
C5701	C570	0.180800	0.688600	0.258930
C5711	C571	0.151500	0.667000	0.422050
C5721	C572	0.197020	0.648440	0.435800
C5731	C573	0.245500	0.688600	0.457800
C5741	C574	0.248500	0.747400	0.465920
C5751	C575	0.202980	0.765960	0.452100
C5761	C576	0.154500	0.725800	0.430200
N251	N25	0.517800	0.517400	0.887500
N261	N26	0.524000	0.427400	0.840000
N271	N27	0.539100	0.610600	0.840300
N281	N28	0.552000	0.522600	0.791700
N291	N29	0.999600	0.517400	0.387500
N301	N30	0.903400	0.427400	0.340000
N311	N31	0.071500	0.610600	0.340300
N321	N32	0.970600	0.522600	0.291700
O491	O49	0.406300	0.925000	0.052800
O501	O50	0.499100	0.058800	0.614700
O511	O51	0.619700	0.963800	0.611500
O521	O52	0.400100	0.053800	0.059700
O531	O53	0.513800	0.087200	0.055500
O541	O54	0.518100	0.961400	0.067400
O551	O55	0.611800	0.093000	0.624330
O561	O56	0.516200	0.939400	0.624700
O571	O57	0.518700	0.925000	0.552800
O581	O58	0.559700	0.058800	0.114700
O591	O59	0.344100	0.963800	0.111500
O601	O60	0.653700	0.053800	0.559700
O611	O61	0.573400	0.087200	0.555500
O621	O62	0.443300	0.961400	0.567400
O631	O63	0.481200	0.093000	0.124330
O641	O64	0.423200	0.939400	0.124700
