data_ZIDVAL_clean_PM
_symmetry_space_group_name_H-M	'P1'
_cell_length_a	12.781000
_cell_length_b	14.169000
_cell_length_c	21.586000
_cell_angle_alpha	90.000000
_cell_angle_beta	90.000000
_cell_angle_gamma	114.173000
_symmetry_Int_Tables_number 1

loop_
_symmetry_equiv_pos_as_xyz
'x,y,z'

loop_
_atom_site_label
_atom_site_type_symbol
_atom_site_fract_x
_atom_site_fract_y
_atom_site_fract_z
Mn11	Mn1	0.694820	0.799780	0.513130
Mn21	Mn2	0.805180	0.200220	0.013130
Mn31	Mn3	0.305180	0.200220	0.486870
Mn41	Mn4	0.194820	0.799780	0.986870
Mn51	Mn5	0.000000	0.000000	0.500000
Mn61	Mn6	0.500000	0.000000	0.000000
H11	H1	0.518000	0.885900	0.437300
H21	H2	0.434000	0.657900	0.316200
H31	H3	0.566500	0.640400	0.392200
H41	H4	0.354400	0.903300	0.408400
H51	H5	0.261200	0.988800	0.357100
H61	H6	0.282400	0.850400	0.198800
H71	H7	0.386700	0.773200	0.248600
H81	H8	0.117200	0.004600	0.316400
H91	H9	0.026300	0.096300	0.270000
H101	H10	0.169100	0.079000	0.107200
H111	H11	0.258300	0.985300	0.154000
H121	H12	0.019700	0.250400	0.223800
H131	H13	0.902500	0.295400	0.150300
H141	H14	0.994400	0.095600	0.068400
H151	H15	0.755200	0.607000	0.378400
H161	H16	0.794600	0.495400	0.313200
H171	H17	0.128300	0.687700	0.315400
H181	H18	0.086800	0.799700	0.379600
H191	H19	0.855300	0.311000	0.315700
H201	H20	0.893600	0.190500	0.373600
H211	H21	0.230600	0.360500	0.355900
H221	H22	0.193300	0.483600	0.300200
H231	H23	0.982000	0.114100	0.937300
H241	H24	0.066000	0.342100	0.816200
H251	H25	0.933500	0.359600	0.892200
H261	H26	0.145600	0.096700	0.908400
H271	H27	0.238800	0.011200	0.857100
H281	H28	0.217600	0.149600	0.698800
H291	H29	0.113300	0.226800	0.748600
H301	H30	0.382800	0.995400	0.816400
H311	H31	0.473700	0.903700	0.770000
H321	H32	0.330900	0.921000	0.607200
H331	H33	0.241700	0.014700	0.654000
H341	H34	0.480300	0.749600	0.723800
H351	H35	0.597500	0.704600	0.650300
H361	H36	0.505600	0.904400	0.568400
H371	H37	0.744800	0.393000	0.878400
H381	H38	0.705400	0.504600	0.813200
H391	H39	0.371700	0.312300	0.815400
H401	H40	0.413200	0.200300	0.879600
H411	H41	0.644700	0.689000	0.815700
H421	H42	0.606400	0.809500	0.873600
H431	H43	0.269400	0.639500	0.855900
H441	H44	0.306700	0.516400	0.800200
H451	H45	0.482000	0.114100	0.562700
H461	H46	0.566000	0.342100	0.683800
H471	H47	0.433500	0.359600	0.607800
H481	H48	0.645600	0.096700	0.591600
H491	H49	0.738800	0.011200	0.642900
H501	H50	0.717600	0.149600	0.801200
H511	H51	0.613300	0.226800	0.751400
H521	H52	0.882800	0.995400	0.683600
H531	H53	0.973700	0.903700	0.730000
H541	H54	0.830900	0.921000	0.892800
H551	H55	0.741700	0.014700	0.846000
H561	H56	0.980300	0.749600	0.776200
H571	H57	0.097500	0.704600	0.849700
H581	H58	0.005600	0.904400	0.931600
H591	H59	0.244800	0.393000	0.621600
H601	H60	0.205400	0.504600	0.686800
H611	H61	0.871700	0.312300	0.684600
H621	H62	0.913200	0.200300	0.620400
H631	H63	0.144700	0.689000	0.684300
H641	H64	0.106400	0.809500	0.626400
H651	H65	0.769400	0.639500	0.644100
H661	H66	0.806700	0.516400	0.699800
H671	H67	0.018000	0.885900	0.062700
H681	H68	0.934000	0.657900	0.183800
H691	H69	0.066500	0.640400	0.107800
H701	H70	0.854400	0.903300	0.091600
H711	H71	0.761200	0.988800	0.142900
H721	H72	0.782400	0.850400	0.301200
H731	H73	0.886700	0.773200	0.251400
H741	H74	0.617200	0.004600	0.183600
H751	H75	0.526300	0.096300	0.230000
H761	H76	0.669100	0.079000	0.392800
H771	H77	0.758300	0.985300	0.346000
H781	H78	0.519700	0.250400	0.276200
H791	H79	0.402500	0.295400	0.349700
H801	H80	0.494400	0.095600	0.431600
H811	H81	0.255200	0.607000	0.121600
H821	H82	0.294600	0.495400	0.186800
H831	H83	0.628300	0.687700	0.184600
H841	H84	0.586800	0.799700	0.120400
H851	H85	0.355300	0.311000	0.184300
H861	H86	0.393600	0.190500	0.126400
H871	H87	0.730600	0.360500	0.144100
H881	H88	0.693300	0.483600	0.199800
C11	C1	0.514000	0.826800	0.416800
C21	C2	0.466700	0.701700	0.349550
C31	C3	0.539900	0.692400	0.391830
C41	C4	0.383600	0.832800	0.333150
C51	C5	0.342900	0.895100	0.365810
C61	C6	0.285100	0.944800	0.335100
C71	C7	0.261900	0.930600	0.271960
C81	C8	0.299300	0.863400	0.240630
C91	C9	0.360900	0.816000	0.270480
C101	C10	0.199900	0.986200	0.240740
C111	C11	0.128400	0.019800	0.274320
C121	C12	0.074000	0.074900	0.246760
C131	C13	0.090600	0.098500	0.183930
C141	C14	0.159000	0.064400	0.149370
C151	C15	0.212700	0.008500	0.177650
C161	C16	0.000600	0.224600	0.183770
C171	C17	0.936100	0.249300	0.142920
C181	C18	0.985900	0.140000	0.097820
C191	C19	0.891800	0.787800	0.427310
C201	C20	0.917700	0.714870	0.385280
C211	C21	0.830100	0.623500	0.365490
C221	C22	0.853400	0.556400	0.326660
C231	C23	0.965100	0.581700	0.308390
C241	C24	0.053300	0.671800	0.327820
C251	C25	0.028000	0.738400	0.366440
C261	C26	0.021400	0.408800	0.303150
C271	C27	0.930600	0.321300	0.324270
C281	C28	0.953900	0.249000	0.358510
C291	C29	0.065700	0.263100	0.370360
C301	C30	0.155200	0.350700	0.348260
C311	C31	0.133100	0.424400	0.314710
C321	C32	0.091300	0.183600	0.406640
C331	C33	0.986000	0.173200	0.916800
C341	C34	0.033300	0.298300	0.849550
C351	C35	0.960100	0.307600	0.891830
C361	C36	0.116400	0.167200	0.833150
C371	C37	0.157100	0.104900	0.865810
C381	C38	0.214900	0.055200	0.835100
C391	C39	0.238100	0.069400	0.771960
C401	C40	0.200700	0.136600	0.740630
C411	C41	0.139100	0.184000	0.770480
C421	C42	0.300100	0.013800	0.740740
C431	C43	0.371600	0.980200	0.774320
C441	C44	0.426000	0.925100	0.746760
C451	C45	0.409400	0.901500	0.683930
C461	C46	0.341000	0.935600	0.649370
C471	C47	0.287300	0.991500	0.677650
C481	C48	0.499400	0.775400	0.683770
C491	C49	0.563900	0.750700	0.642920
C501	C50	0.514100	0.860000	0.597820
C511	C51	0.608200	0.212200	0.927310
C521	C52	0.582300	0.285130	0.885280
C531	C53	0.669900	0.376500	0.865490
C541	C54	0.646600	0.443600	0.826660
C551	C55	0.534900	0.418300	0.808390
C561	C56	0.446700	0.328200	0.827820
C571	C57	0.472000	0.261600	0.866440
C581	C58	0.478600	0.591200	0.803150
C591	C59	0.569400	0.678700	0.824270
C601	C60	0.546100	0.751000	0.858510
C611	C61	0.434300	0.736900	0.870360
C621	C62	0.344800	0.649300	0.848260
C631	C63	0.366900	0.575600	0.814710
C641	C64	0.408700	0.816400	0.906640
C651	C65	0.486000	0.173200	0.583200
C661	C66	0.533300	0.298300	0.650450
C671	C67	0.460100	0.307600	0.608170
C681	C68	0.616400	0.167200	0.666850
C691	C69	0.657100	0.104900	0.634190
C701	C70	0.714900	0.055200	0.664900
C711	C71	0.738100	0.069400	0.728040
C721	C72	0.700700	0.136600	0.759370
C731	C73	0.639100	0.184000	0.729520
C741	C74	0.800100	0.013800	0.759260
C751	C75	0.871600	0.980200	0.725680
C761	C76	0.926000	0.925100	0.753240
C771	C77	0.909400	0.901500	0.816070
C781	C78	0.841000	0.935600	0.850630
C791	C79	0.787300	0.991500	0.822350
C801	C80	0.999400	0.775400	0.816230
C811	C81	0.063900	0.750700	0.857080
C821	C82	0.014100	0.860000	0.902180
C831	C83	0.108200	0.212200	0.572690
C841	C84	0.082300	0.285130	0.614720
C851	C85	0.169900	0.376500	0.634510
C861	C86	0.146600	0.443600	0.673340
C871	C87	0.034900	0.418300	0.691610
C881	C88	0.946700	0.328200	0.672180
C891	C89	0.972000	0.261600	0.633560
C901	C90	0.978600	0.591200	0.696850
C911	C91	0.069400	0.678700	0.675730
C921	C92	0.046100	0.751000	0.641490
C931	C93	0.934300	0.736900	0.629640
C941	C94	0.844800	0.649300	0.651740
C951	C95	0.866900	0.575600	0.685290
C961	C96	0.908700	0.816400	0.593360
C971	C97	0.014000	0.826800	0.083200
C981	C98	0.966700	0.701700	0.150450
C991	C99	0.039900	0.692400	0.108170
C1001	C100	0.883600	0.832800	0.166850
C1011	C101	0.842900	0.895100	0.134190
C1021	C102	0.785100	0.944800	0.164900
C1031	C103	0.761900	0.930600	0.228040
C1041	C104	0.799300	0.863400	0.259370
C1051	C105	0.860900	0.816000	0.229520
C1061	C106	0.699900	0.986200	0.259260
C1071	C107	0.628400	0.019800	0.225680
C1081	C108	0.574000	0.074900	0.253240
C1091	C109	0.590600	0.098500	0.316070
C1101	C110	0.659000	0.064400	0.350630
C1111	C111	0.712700	0.008500	0.322350
C1121	C112	0.500600	0.224600	0.316230
C1131	C113	0.436100	0.249300	0.357080
C1141	C114	0.485900	0.140000	0.402180
C1151	C115	0.391800	0.787800	0.072690
C1161	C116	0.417700	0.714870	0.114720
C1171	C117	0.330100	0.623500	0.134510
C1181	C118	0.353400	0.556400	0.173340
C1191	C119	0.465100	0.581700	0.191610
C1201	C120	0.553300	0.671800	0.172180
C1211	C121	0.528000	0.738400	0.133560
C1221	C122	0.521400	0.408800	0.196850
C1231	C123	0.430600	0.321300	0.175730
C1241	C124	0.453900	0.249000	0.141490
C1251	C125	0.565700	0.263100	0.129640
C1261	C126	0.655200	0.350700	0.151740
C1271	C127	0.633100	0.424400	0.185290
C1281	C128	0.591300	0.183600	0.093360
S11	S1	0.995110	0.499400	0.256160
S21	S2	0.504890	0.500600	0.756160
S31	S3	0.004890	0.500600	0.743840
S41	S4	0.495110	0.499400	0.243840
N11	N1	0.569100	0.771700	0.434220
N21	N2	0.450100	0.788090	0.365310
N31	N3	0.032800	0.154300	0.155120
N41	N4	0.927400	0.195610	0.088530
N51	N5	0.773400	0.033800	0.499040
N61	N6	0.930900	0.228300	0.934220
N71	N7	0.049900	0.211910	0.865310
N81	N8	0.467200	0.845700	0.655120
N91	N9	0.572600	0.804390	0.588530
N101	N10	0.726600	0.966200	0.999040
N111	N11	0.430900	0.228300	0.565780
N121	N12	0.549900	0.211910	0.634690
N131	N13	0.967200	0.845700	0.844880
N141	N14	0.072600	0.804390	0.911470
N151	N15	0.226600	0.966200	0.500960
N161	N16	0.069100	0.771700	0.065780
N171	N17	0.950100	0.788090	0.134690
N181	N18	0.532800	0.154300	0.344880
N191	N19	0.427400	0.195610	0.411470
N201	N20	0.273400	0.033800	0.000960
O11	O1	0.794710	0.754490	0.450120
O21	O2	0.971100	0.875380	0.435530
O31	O3	0.892200	0.444170	0.221830
O41	O4	0.099500	0.559770	0.224290
O51	O5	0.008380	0.106810	0.426030
O61	O6	0.194190	0.201250	0.412310
O71	O7	0.809550	0.963770	0.502300
O81	O8	0.672650	0.022050	0.497450
O91	O9	0.705290	0.245510	0.950120
O101	O10	0.528900	0.124620	0.935530
O111	O11	0.607800	0.555830	0.721830
O121	O12	0.400500	0.440230	0.724290
O131	O13	0.491620	0.893190	0.926030
O141	O14	0.305810	0.798750	0.912310
O151	O15	0.690450	0.036230	0.002300
O161	O16	0.827350	0.977950	0.997450
O171	O17	0.205290	0.245510	0.549880
O181	O18	0.028900	0.124620	0.564470
O191	O19	0.107800	0.555830	0.778170
O201	O20	0.900500	0.440230	0.775710
O211	O21	0.991620	0.893190	0.573970
O221	O22	0.805810	0.798750	0.587690
O231	O23	0.190450	0.036230	0.497700
O241	O24	0.327350	0.977950	0.502550
O251	O25	0.294710	0.754490	0.049880
O261	O26	0.471100	0.875380	0.064470
O271	O27	0.392200	0.444170	0.278170
O281	O28	0.599500	0.559770	0.275710
O291	O29	0.508380	0.106810	0.073970
O301	O30	0.694190	0.201250	0.087690
O311	O31	0.309550	0.963770	0.997700
O321	O32	0.172650	0.022050	0.002550
