data_ZIHFUR_clean_PM
_symmetry_space_group_name_H-M	'P1'
_cell_length_a	24.552000
_cell_length_b	24.552000
_cell_length_c	4.845000
_cell_angle_alpha	90.000000
_cell_angle_beta	90.000000
_cell_angle_gamma	90.000000
_symmetry_Int_Tables_number 1

loop_
_symmetry_equiv_pos_as_xyz
'x,y,z'

loop_
_atom_site_label
_atom_site_type_symbol
_atom_site_fract_x
_atom_site_fract_y
_atom_site_fract_z
N11	N1	0.968200	0.569200	0.482600
C11	C1	0.962400	0.642100	0.118400
C21	C2	0.914700	0.662900	0.018400
C31	C3	0.913700	0.703300	0.824900
C41	C4	0.961200	0.728000	0.724700
C51	C5	0.011100	0.707800	0.824600
C61	C6	0.009700	0.664300	0.026900
C71	C7	0.965600	0.602300	0.317900
H11	H1	0.881900	0.649100	0.084200
H21	H2	0.880200	0.714800	0.757000
H31	H3	0.044100	0.722000	0.762600
H41	H4	0.042500	0.651100	0.096600
N21	N2	0.468200	0.069200	0.982600
C81	C8	0.462400	0.142100	0.618400
C91	C9	0.414700	0.162900	0.518400
C101	C10	0.413700	0.203300	0.324900
C111	C11	0.461200	0.228000	0.224700
C121	C12	0.511100	0.207800	0.324600
C131	C13	0.509700	0.164300	0.526900
C141	C14	0.465600	0.102300	0.817900
H51	H5	0.381900	0.149100	0.584200
H61	H6	0.380200	0.214800	0.257000
H71	H7	0.544100	0.222000	0.262600
H81	H8	0.542500	0.151100	0.596600
N31	N3	0.031800	0.430800	0.482600
C151	C15	0.037600	0.357900	0.118400
C161	C16	0.085300	0.337100	0.018400
C171	C17	0.086300	0.296700	0.824900
C181	C18	0.038800	0.272000	0.724700
C191	C19	0.988900	0.292200	0.824600
C201	C20	0.990300	0.335700	0.026900
C211	C21	0.034400	0.397700	0.317900
H91	H9	0.118100	0.350900	0.084200
H101	H10	0.119800	0.285200	0.757000
H111	H11	0.955900	0.278000	0.762600
H121	H12	0.957500	0.348900	0.096600
N41	N4	0.531800	0.930800	0.982600
C221	C22	0.537600	0.857900	0.618400
C231	C23	0.585300	0.837100	0.518400
C241	C24	0.586300	0.796700	0.324900
C251	C25	0.538800	0.772000	0.224700
C261	C26	0.488900	0.792200	0.324600
C271	C27	0.490300	0.835700	0.526900
C281	C28	0.534400	0.897700	0.817900
H131	H13	0.618100	0.850900	0.584200
H141	H14	0.619800	0.785200	0.257000
H151	H15	0.455900	0.778000	0.262600
H161	H16	0.457500	0.848900	0.596600
N51	N5	0.569200	0.031800	0.517400
C291	C29	0.642100	0.037600	0.881600
C301	C30	0.662900	0.085300	0.981600
C311	C31	0.703300	0.086300	0.175100
C321	C32	0.728000	0.038800	0.275300
C331	C33	0.707800	0.988900	0.175400
C341	C34	0.664300	0.990300	0.973100
C351	C35	0.602300	0.034400	0.682100
H171	H17	0.649100	0.118100	0.915800
H181	H18	0.714800	0.119800	0.243000
H191	H19	0.722000	0.955900	0.237400
H201	H20	0.651100	0.957500	0.903400
N61	N6	0.069200	0.531800	0.017400
C361	C36	0.142100	0.537600	0.381600
C371	C37	0.162900	0.585300	0.481600
C381	C38	0.203300	0.586300	0.675100
C391	C39	0.228000	0.538800	0.775300
C401	C40	0.207800	0.488900	0.675400
C411	C41	0.164300	0.490300	0.473100
C421	C42	0.102300	0.534400	0.182100
H211	H21	0.149100	0.618100	0.415800
H221	H22	0.214800	0.619800	0.743000
H231	H23	0.222000	0.455900	0.737400
H241	H24	0.151100	0.457500	0.403400
N71	N7	0.430800	0.968200	0.517400
C431	C43	0.357900	0.962400	0.881600
C441	C44	0.337100	0.914700	0.981600
C451	C45	0.296700	0.913700	0.175100
C461	C46	0.272000	0.961200	0.275300
C471	C47	0.292200	0.011100	0.175400
C481	C48	0.335700	0.009700	0.973100
C491	C49	0.397700	0.965600	0.682100
H251	H25	0.350900	0.881900	0.915800
H261	H26	0.285200	0.880200	0.243000
H271	H27	0.278000	0.044100	0.237400
H281	H28	0.348900	0.042500	0.903400
N81	N8	0.930800	0.468200	0.017400
C501	C50	0.857900	0.462400	0.381600
C511	C51	0.837100	0.414700	0.481600
C521	C52	0.796700	0.413700	0.675100
C531	C53	0.772000	0.461200	0.775300
C541	C54	0.792200	0.511100	0.675400
C551	C55	0.835700	0.509700	0.473100
C561	C56	0.897700	0.465600	0.182100
H291	H29	0.850900	0.381900	0.415800
H301	H30	0.785200	0.380200	0.743000
H311	H31	0.778000	0.544100	0.737400
H321	H32	0.848900	0.542500	0.403400
N91	N9	0.531800	0.569200	0.267400
C571	C57	0.537600	0.642100	0.631600
C581	C58	0.585300	0.662900	0.731600
C591	C59	0.586300	0.703300	0.925100
C601	C60	0.538800	0.728000	0.025300
C611	C61	0.488900	0.707800	0.925400
C621	C62	0.490300	0.664300	0.723100
C631	C63	0.534400	0.602300	0.432100
H331	H33	0.618100	0.649100	0.665800
H341	H34	0.619800	0.714800	0.993000
H351	H35	0.455900	0.722000	0.987400
H361	H36	0.457500	0.651100	0.653400
N101	N10	0.031800	0.069200	0.767400
C641	C64	0.037600	0.142100	0.131600
C651	C65	0.085300	0.162900	0.231600
C661	C66	0.086300	0.203300	0.425100
C671	C67	0.038800	0.228000	0.525300
C681	C68	0.988900	0.207800	0.425400
C691	C69	0.990300	0.164300	0.223100
C701	C70	0.034400	0.102300	0.932100
H371	H37	0.118100	0.149100	0.165800
H381	H38	0.119800	0.214800	0.493000
H391	H39	0.955900	0.222000	0.487400
H401	H40	0.957500	0.151100	0.153400
N111	N11	0.468200	0.430800	0.267400
C711	C71	0.462400	0.357900	0.631600
C721	C72	0.414700	0.337100	0.731600
C731	C73	0.413700	0.296700	0.925100
C741	C74	0.461200	0.272000	0.025300
C751	C75	0.511100	0.292200	0.925400
C761	C76	0.509700	0.335700	0.723100
C771	C77	0.465600	0.397700	0.432100
H411	H41	0.381900	0.350900	0.665800
H421	H42	0.380200	0.285200	0.993000
H431	H43	0.544100	0.278000	0.987400
H441	H44	0.542500	0.348900	0.653400
N121	N12	0.968200	0.930800	0.767400
C781	C78	0.962400	0.857900	0.131600
C791	C79	0.914700	0.837100	0.231600
C801	C80	0.913700	0.796700	0.425100
C811	C81	0.961200	0.772000	0.525300
C821	C82	0.011100	0.792200	0.425400
C831	C83	0.009700	0.835700	0.223100
C841	C84	0.965600	0.897700	0.932100
H451	H45	0.881900	0.850900	0.165800
H461	H46	0.880200	0.785200	0.493000
H471	H47	0.044100	0.778000	0.487400
H481	H48	0.042500	0.848900	0.153400
N131	N13	0.930800	0.031800	0.232600
C851	C85	0.857900	0.037600	0.868400
C861	C86	0.837100	0.085300	0.768400
C871	C87	0.796700	0.086300	0.574900
C881	C88	0.772000	0.038800	0.474700
C891	C89	0.792200	0.988900	0.574600
C901	C90	0.835700	0.990300	0.776900
C911	C91	0.897700	0.034400	0.067900
H491	H49	0.850900	0.118100	0.834200
H501	H50	0.785200	0.119800	0.507000
H511	H51	0.778000	0.955900	0.512600
H521	H52	0.848900	0.957500	0.846600
N141	N14	0.430800	0.531800	0.732600
C921	C92	0.357900	0.537600	0.368400
C931	C93	0.337100	0.585300	0.268400
C941	C94	0.296700	0.586300	0.074900
C951	C95	0.272000	0.538800	0.974700
C961	C96	0.292200	0.488900	0.074600
C971	C97	0.335700	0.490300	0.276900
C981	C98	0.397700	0.534400	0.567900
H531	H53	0.350900	0.618100	0.334200
H541	H54	0.285200	0.619800	0.007000
H551	H55	0.278000	0.455900	0.012600
H561	H56	0.348900	0.457500	0.346600
N151	N15	0.069200	0.968200	0.232600
C991	C99	0.142100	0.962400	0.868400
C1001	C100	0.162900	0.914700	0.768400
C1011	C101	0.203300	0.913700	0.574900
C1021	C102	0.228000	0.961200	0.474700
C1031	C103	0.207800	0.011100	0.574600
C1041	C104	0.164300	0.009700	0.776900
C1051	C105	0.102300	0.965600	0.067900
H571	H57	0.149100	0.881900	0.834200
H581	H58	0.214800	0.880200	0.507000
H591	H59	0.222000	0.044100	0.512600
H601	H60	0.151100	0.042500	0.846600
N161	N16	0.569200	0.468200	0.732600
C1061	C106	0.642100	0.462400	0.368400
C1071	C107	0.662900	0.414700	0.268400
C1081	C108	0.703300	0.413700	0.074900
C1091	C109	0.728000	0.461200	0.974700
C1101	C110	0.707800	0.511100	0.074600
C1111	C111	0.664300	0.509700	0.276900
C1121	C112	0.602300	0.465600	0.567900
H611	H61	0.649100	0.381900	0.334200
H621	H62	0.714800	0.380200	0.007000
H631	H63	0.722000	0.544100	0.012600
H641	H64	0.651100	0.542500	0.346600
Ag11	Ag1	0.000000	0.500000	0.750000
Ag21	Ag2	0.500000	0.000000	0.250000
Ag31	Ag3	0.500000	0.500000	0.000000
Ag41	Ag4	0.000000	0.000000	0.500000
