data_ZIJVOF_clean_PM
_symmetry_space_group_name_H-M	'P1'
_cell_length_a	10.993100
_cell_length_b	10.993100
_cell_length_c	18.085000
_cell_angle_alpha	90.000000
_cell_angle_beta	90.000000
_cell_angle_gamma	90.000000
_symmetry_Int_Tables_number 1

loop_
_symmetry_equiv_pos_as_xyz
'x,y,z'

loop_
_atom_site_label
_atom_site_type_symbol
_atom_site_fract_x
_atom_site_fract_y
_atom_site_fract_z
Cu11	Cu1	0.383540	0.108030	0.856120
Cu21	Cu2	0.592230	0.899330	0.865560
Cu31	Cu3	0.616460	0.891970	0.356120
Cu41	Cu4	0.407770	0.100670	0.365560
Cu51	Cu5	0.891970	0.383540	0.606120
Cu61	Cu6	0.100670	0.592230	0.615560
Cu71	Cu7	0.108030	0.616460	0.106120
Cu81	Cu8	0.899330	0.407770	0.115560
H11	H1	0.165900	0.029900	0.709300
H21	H2	0.084000	0.933400	0.749300
H31	H3	0.141700	0.040600	0.794500
H41	H4	0.422700	0.581500	0.782900
H51	H5	0.515100	0.642200	0.728100
H61	H6	0.534400	0.654300	0.813700
H71	H7	0.480700	0.332100	0.686200
H81	H8	0.413300	0.316700	0.762000
H91	H9	0.526100	0.403500	0.756000
H101	H10	0.864500	0.992700	0.809200
H111	H11	0.813200	0.934900	0.736400
H121	H12	0.891600	0.053800	0.732600
H131	H13	0.834100	0.970100	0.209300
H141	H14	0.916000	0.066600	0.249300
H151	H15	0.858300	0.959400	0.294500
H161	H16	0.577300	0.418500	0.282900
H171	H17	0.484900	0.357800	0.228100
H181	H18	0.465600	0.345700	0.313700
H191	H19	0.519300	0.667900	0.186200
H201	H20	0.586700	0.683300	0.262000
H211	H21	0.473900	0.596500	0.256000
H221	H22	0.135500	0.007300	0.309200
H231	H23	0.186800	0.065100	0.236400
H241	H24	0.108400	0.946200	0.232600
H251	H25	0.970100	0.165900	0.459300
H261	H26	0.066600	0.084000	0.499300
H271	H27	0.959400	0.141700	0.544500
H281	H28	0.418500	0.422700	0.532900
H291	H29	0.357800	0.515100	0.478100
H301	H30	0.345700	0.534400	0.563700
H311	H31	0.667900	0.480700	0.436200
H321	H32	0.683300	0.413300	0.512000
H331	H33	0.596500	0.526100	0.506000
H341	H34	0.007300	0.864500	0.559200
H351	H35	0.065100	0.813200	0.486400
H361	H36	0.946200	0.891600	0.482600
H371	H37	0.029900	0.834100	0.959300
H381	H38	0.933400	0.916000	0.999300
H391	H39	0.040600	0.858300	0.044500
H401	H40	0.581500	0.577300	0.032900
H411	H41	0.642200	0.484900	0.978100
H421	H42	0.654300	0.465600	0.063700
H431	H43	0.332100	0.519300	0.936200
H441	H44	0.316700	0.586700	0.012000
H451	H45	0.403500	0.473900	0.006000
H461	H46	0.992700	0.135500	0.059200
H471	H47	0.934900	0.186800	0.986400
H481	H48	0.053800	0.108400	0.982600
C11	C1	0.154100	0.984900	0.754200
C21	C2	0.474800	0.650400	0.775000
C31	C3	0.267300	0.906300	0.769800
C41	C4	0.404500	0.758000	0.775200
C51	C5	0.286800	0.791500	0.745500
C61	C6	0.215900	0.715400	0.696200
C71	C7	0.491000	0.328600	0.738900
C81	C8	0.832300	0.009900	0.761000
C91	C9	0.572000	0.226900	0.757900
C101	C10	0.715900	0.087200	0.768600
C111	C11	0.693200	0.195100	0.733900
C121	C12	0.766600	0.265600	0.682600
C131	C13	0.845900	0.015100	0.254200
C141	C14	0.525200	0.349600	0.275000
C151	C15	0.732700	0.093700	0.269800
C161	C16	0.595500	0.242000	0.275200
C171	C17	0.713200	0.208500	0.245500
C181	C18	0.784100	0.284600	0.196200
C191	C19	0.509000	0.671400	0.238900
C201	C20	0.167700	0.990100	0.261000
C211	C21	0.428000	0.773100	0.257900
C221	C22	0.284100	0.912800	0.268600
C231	C23	0.306800	0.804900	0.233900
C241	C24	0.233400	0.734400	0.182600
C251	C25	0.015100	0.154100	0.504200
C261	C26	0.349600	0.474800	0.525000
C271	C27	0.093700	0.267300	0.519800
C281	C28	0.242000	0.404500	0.525200
C291	C29	0.208500	0.286800	0.495500
C301	C30	0.284600	0.215900	0.446200
C311	C31	0.671400	0.491000	0.488900
C321	C32	0.990100	0.832300	0.511000
C331	C33	0.773100	0.572000	0.507900
C341	C34	0.912800	0.715900	0.518600
C351	C35	0.804900	0.693200	0.483900
C361	C36	0.734400	0.766600	0.432600
C371	C37	0.984900	0.845900	0.004200
C381	C38	0.650400	0.525200	0.025000
C391	C39	0.906300	0.732700	0.019800
C401	C40	0.758000	0.595500	0.025200
C411	C41	0.791500	0.713200	0.995500
C421	C42	0.715400	0.784100	0.946200
C431	C43	0.328600	0.509000	0.988900
C441	C44	0.009900	0.167700	0.011000
C451	C45	0.226900	0.428000	0.007900
C461	C46	0.087200	0.284100	0.018600
C471	C47	0.195100	0.306800	0.983900
C481	C48	0.265600	0.233400	0.932600
N11	N1	0.354500	0.952100	0.808600
N21	N2	0.437200	0.859200	0.815800
N31	N3	0.535200	0.135400	0.801500
N41	N4	0.625000	0.046400	0.806900
N51	N5	0.645500	0.047900	0.308600
N61	N6	0.562800	0.140800	0.315800
N71	N7	0.464800	0.864600	0.301500
N81	N8	0.375000	0.953600	0.306900
N91	N9	0.047900	0.354500	0.558600
N101	N10	0.140800	0.437200	0.565800
N111	N11	0.864600	0.535200	0.551500
N121	N12	0.953600	0.625000	0.556900
N131	N13	0.952100	0.645500	0.058600
N141	N14	0.859200	0.562800	0.065800
N151	N15	0.135400	0.464800	0.051500
N161	N16	0.046400	0.375000	0.056900
O11	O1	0.114800	0.753100	0.668100
O21	O2	0.250200	0.610600	0.678100
O31	O3	0.732700	0.363700	0.657100
O41	O4	0.871800	0.226400	0.663200
O51	O5	0.885200	0.246900	0.168100
O61	O6	0.749800	0.389400	0.178100
O71	O7	0.267300	0.636300	0.157100
O81	O8	0.128200	0.773600	0.163200
O91	O9	0.246900	0.114800	0.418100
O101	O10	0.389400	0.250200	0.428100
O111	O11	0.636300	0.732700	0.407100
O121	O12	0.773600	0.871800	0.413200
O131	O13	0.753100	0.885200	0.918100
O141	O14	0.610600	0.749800	0.928100
O151	O15	0.363700	0.267300	0.907100
O161	O16	0.226400	0.128200	0.913200
