data_ZIKCED_clean_PM
_symmetry_space_group_name_H-M	'P1'
_cell_length_a	28.157000
_cell_length_b	16.659000
_cell_length_c	14.558400
_cell_angle_alpha	90.000000
_cell_angle_beta	93.284000
_cell_angle_gamma	90.000000
_symmetry_Int_Tables_number 1

loop_
_symmetry_equiv_pos_as_xyz
'x,y,z'

loop_
_atom_site_label
_atom_site_type_symbol
_atom_site_fract_x
_atom_site_fract_y
_atom_site_fract_z
Zn11	Zn1	0.301580	0.147920	0.640980
Zn21	Zn2	0.211440	0.247300	0.574950
O11	O1	0.258580	0.078500	0.704800
O21	O2	0.194250	0.155040	0.676300
O31	O3	0.175810	0.740230	0.787200
O41	O4	0.242270	0.807930	0.825800
O51	O5	0.836450	0.811200	0.513400
O61	O6	0.804970	0.933800	0.515700
O71	O7	0.037720	0.070600	0.647200
N11	N1	0.861870	0.583300	0.634200
N21	N2	0.154950	0.320200	0.615500
N31	N3	0.060460	0.941300	0.658000
H11	H1	0.050000	0.893000	0.651300
C11	C1	0.979390	0.969500	0.609200
C21	C2	0.970700	0.890700	0.587100
H21	H2	0.995700	0.854200	0.590100
C31	C3	0.925200	0.864300	0.560400
H31	H3	0.919900	0.810400	0.546600
C41	C4	0.887960	0.917600	0.554300
C51	C5	0.896960	0.996600	0.573700
H41	H4	0.872200	0.033500	0.568500
C61	C6	0.942320	0.022500	0.601000
H51	H5	0.947600	0.076600	0.613900
C71	C7	0.109180	0.947700	0.686900
C81	C8	0.135580	0.017700	0.681500
H61	H6	0.121400	0.064700	0.659100
C91	C9	0.183730	0.016700	0.710000
C101	C10	0.204800	0.948100	0.744700
H71	H7	0.236800	0.948700	0.764100
C111	C11	0.178770	0.877600	0.751100
C121	C12	0.130790	0.878500	0.721100
H81	H8	0.113000	0.831600	0.724100
C131	C13	0.213700	0.089400	0.695600
C141	C14	0.201080	0.803900	0.791300
C151	C15	0.838880	0.886400	0.525200
C161	C16	0.028240	0.999100	0.639600
C171	C17	0.904080	0.619100	0.631500
H91	H9	0.905500	0.674900	0.631700
C181	C18	0.945800	0.575900	0.628400
H101	H10	0.974800	0.602700	0.627300
C191	C19	0.944700	0.493700	0.627100
C201	C20	0.901200	0.456900	0.628300
H111	H11	0.899000	0.401200	0.627700
C211	C21	0.860600	0.503400	0.630500
H121	H12	0.831200	0.477900	0.629400
C221	C22	0.112600	0.287600	0.628200
H131	H13	0.110500	0.232100	0.633500
C231	C23	0.071900	0.332500	0.633700
H141	H14	0.043100	0.307300	0.642500
C241	C24	0.073910	0.416100	0.626000
C251	C25	0.118300	0.449300	0.617200
H151	H15	0.121900	0.504700	0.614600
C261	C26	0.157020	0.399800	0.612200
H161	H16	0.186600	0.423500	0.606300
C271	C27	0.987500	0.442700	0.625300
H171	H17	0.982700	0.387500	0.623200
C281	C28	0.032000	0.467900	0.626300
H181	H18	0.037100	0.523100	0.627400
O81	O8	0.267090	0.174490	0.527000
Zn31	Zn3	0.801580	0.647920	0.640980
Zn41	Zn4	0.711440	0.747300	0.574950
O91	O9	0.758580	0.578500	0.704800
O101	O10	0.694250	0.655040	0.676300
O111	O11	0.675810	0.240230	0.787200
O121	O12	0.742270	0.307930	0.825800
O131	O13	0.336450	0.311200	0.513400
O141	O14	0.304970	0.433800	0.515700
O151	O15	0.537720	0.570600	0.647200
N41	N4	0.361870	0.083300	0.634200
N51	N5	0.654950	0.820200	0.615500
N61	N6	0.560460	0.441300	0.658000
H191	H19	0.550000	0.393000	0.651300
C291	C29	0.479390	0.469500	0.609200
C301	C30	0.470700	0.390700	0.587100
H201	H20	0.495700	0.354200	0.590100
C311	C31	0.425200	0.364300	0.560400
H211	H21	0.419900	0.310400	0.546600
C321	C32	0.387960	0.417600	0.554300
C331	C33	0.396960	0.496600	0.573700
H221	H22	0.372200	0.533500	0.568500
C341	C34	0.442320	0.522500	0.601000
H231	H23	0.447600	0.576600	0.613900
C351	C35	0.609180	0.447700	0.686900
C361	C36	0.635580	0.517700	0.681500
H241	H24	0.621400	0.564700	0.659100
C371	C37	0.683730	0.516700	0.710000
C381	C38	0.704800	0.448100	0.744700
H251	H25	0.736800	0.448700	0.764100
C391	C39	0.678770	0.377600	0.751100
C401	C40	0.630790	0.378500	0.721100
H261	H26	0.613000	0.331600	0.724100
C411	C41	0.713700	0.589400	0.695600
C421	C42	0.701080	0.303900	0.791300
C431	C43	0.338880	0.386400	0.525200
C441	C44	0.528240	0.499100	0.639600
C451	C45	0.404080	0.119100	0.631500
H271	H27	0.405500	0.174900	0.631700
C461	C46	0.445800	0.075900	0.628400
H281	H28	0.474800	0.102700	0.627300
C471	C47	0.444700	0.993700	0.627100
C481	C48	0.401200	0.956900	0.628300
H291	H29	0.399000	0.901200	0.627700
C491	C49	0.360600	0.003400	0.630500
H301	H30	0.331200	0.977900	0.629400
C501	C50	0.612600	0.787600	0.628200
H311	H31	0.610500	0.732100	0.633500
C511	C51	0.571900	0.832500	0.633700
H321	H32	0.543100	0.807300	0.642500
C521	C52	0.573910	0.916100	0.626000
C531	C53	0.618300	0.949300	0.617200
H331	H33	0.621900	0.004700	0.614600
C541	C54	0.657020	0.899800	0.612200
H341	H34	0.686600	0.923500	0.606300
C551	C55	0.487500	0.942700	0.625300
H351	H35	0.482700	0.887500	0.623200
C561	C56	0.532000	0.967900	0.626300
H361	H36	0.537100	0.023100	0.627400
O161	O16	0.767090	0.674490	0.527000
Zn51	Zn5	0.698420	0.147920	0.859020
Zn61	Zn6	0.788560	0.247300	0.925050
O171	O17	0.741420	0.078500	0.795200
O181	O18	0.805750	0.155040	0.823700
O191	O19	0.824190	0.740230	0.712800
O201	O20	0.757730	0.807930	0.674200
O211	O21	0.163550	0.811200	0.986600
O221	O22	0.195030	0.933800	0.984300
O231	O23	0.962280	0.070600	0.852800
N71	N7	0.138130	0.583300	0.865800
N81	N8	0.845050	0.320200	0.884500
N91	N9	0.939540	0.941300	0.842000
H371	H37	0.950000	0.893000	0.848700
C571	C57	0.020610	0.969500	0.890800
C581	C58	0.029300	0.890700	0.912900
H381	H38	0.004300	0.854200	0.909900
C591	C59	0.074800	0.864300	0.939600
H391	H39	0.080100	0.810400	0.953400
C601	C60	0.112040	0.917600	0.945700
C611	C61	0.103040	0.996600	0.926300
H401	H40	0.127800	0.033500	0.931500
C621	C62	0.057680	0.022500	0.899000
H411	H41	0.052400	0.076600	0.886100
C631	C63	0.890820	0.947700	0.813100
C641	C64	0.864420	0.017700	0.818500
H421	H42	0.878600	0.064700	0.840900
C651	C65	0.816270	0.016700	0.790000
C661	C66	0.795200	0.948100	0.755300
H431	H43	0.763200	0.948700	0.735900
C671	C67	0.821230	0.877600	0.748900
C681	C68	0.869210	0.878500	0.778900
H441	H44	0.887000	0.831600	0.775900
C691	C69	0.786300	0.089400	0.804400
C701	C70	0.798920	0.803900	0.708700
C711	C71	0.161120	0.886400	0.974800
C721	C72	0.971760	0.999100	0.860400
C731	C73	0.095920	0.619100	0.868500
H451	H45	0.094500	0.674900	0.868300
C741	C74	0.054200	0.575900	0.871600
H461	H46	0.025200	0.602700	0.872700
C751	C75	0.055300	0.493700	0.872900
C761	C76	0.098800	0.456900	0.871700
H471	H47	0.101000	0.401200	0.872300
C771	C77	0.139400	0.503400	0.869500
H481	H48	0.168800	0.477900	0.870600
C781	C78	0.887400	0.287600	0.871800
H491	H49	0.889500	0.232100	0.866500
C791	C79	0.928100	0.332500	0.866300
H501	H50	0.956900	0.307300	0.857500
C801	C80	0.926090	0.416100	0.874000
C811	C81	0.881700	0.449300	0.882800
H511	H51	0.878100	0.504700	0.885400
C821	C82	0.842980	0.399800	0.887800
H521	H52	0.813400	0.423500	0.893700
C831	C83	0.012500	0.442700	0.874700
H531	H53	0.017300	0.387500	0.876800
C841	C84	0.968000	0.467900	0.873700
H541	H54	0.962900	0.523100	0.872600
O241	O24	0.732910	0.174490	0.973000
Zn71	Zn7	0.198420	0.647920	0.859020
Zn81	Zn8	0.288560	0.747300	0.925050
O251	O25	0.241420	0.578500	0.795200
O261	O26	0.305750	0.655040	0.823700
O271	O27	0.324190	0.240230	0.712800
O281	O28	0.257730	0.307930	0.674200
O291	O29	0.663550	0.311200	0.986600
O301	O30	0.695030	0.433800	0.984300
O311	O31	0.462280	0.570600	0.852800
N101	N10	0.638130	0.083300	0.865800
N111	N11	0.345050	0.820200	0.884500
N121	N12	0.439540	0.441300	0.842000
H551	H55	0.450000	0.393000	0.848700
C851	C85	0.520610	0.469500	0.890800
C861	C86	0.529300	0.390700	0.912900
H561	H56	0.504300	0.354200	0.909900
C871	C87	0.574800	0.364300	0.939600
H571	H57	0.580100	0.310400	0.953400
C881	C88	0.612040	0.417600	0.945700
C891	C89	0.603040	0.496600	0.926300
H581	H58	0.627800	0.533500	0.931500
C901	C90	0.557680	0.522500	0.899000
H591	H59	0.552400	0.576600	0.886100
C911	C91	0.390820	0.447700	0.813100
C921	C92	0.364420	0.517700	0.818500
H601	H60	0.378600	0.564700	0.840900
C931	C93	0.316270	0.516700	0.790000
C941	C94	0.295200	0.448100	0.755300
H611	H61	0.263200	0.448700	0.735900
C951	C95	0.321230	0.377600	0.748900
C961	C96	0.369210	0.378500	0.778900
H621	H62	0.387000	0.331600	0.775900
C971	C97	0.286300	0.589400	0.804400
C981	C98	0.298920	0.303900	0.708700
C991	C99	0.661120	0.386400	0.974800
C1001	C100	0.471760	0.499100	0.860400
C1011	C101	0.595920	0.119100	0.868500
H631	H63	0.594500	0.174900	0.868300
C1021	C102	0.554200	0.075900	0.871600
H641	H64	0.525200	0.102700	0.872700
C1031	C103	0.555300	0.993700	0.872900
C1041	C104	0.598800	0.956900	0.871700
H651	H65	0.601000	0.901200	0.872300
C1051	C105	0.639400	0.003400	0.869500
H661	H66	0.668800	0.977900	0.870600
C1061	C106	0.387400	0.787600	0.871800
H671	H67	0.389500	0.732100	0.866500
C1071	C107	0.428100	0.832500	0.866300
H681	H68	0.456900	0.807300	0.857500
C1081	C108	0.426090	0.916100	0.874000
C1091	C109	0.381700	0.949300	0.882800
H691	H69	0.378100	0.004700	0.885400
C1101	C110	0.342980	0.899800	0.887800
H701	H70	0.313400	0.923500	0.893700
C1111	C111	0.512500	0.942700	0.874700
H711	H71	0.517300	0.887500	0.876800
C1121	C112	0.468000	0.967900	0.873700
H721	H72	0.462900	0.023100	0.872600
O321	O32	0.232910	0.674490	0.973000
Zn91	Zn9	0.698420	0.852080	0.359020
Zn101	Zn10	0.788560	0.752700	0.425050
O331	O33	0.741420	0.921500	0.295200
O341	O34	0.805750	0.844960	0.323700
O351	O35	0.824190	0.259770	0.212800
O361	O36	0.757730	0.192070	0.174200
O371	O37	0.163550	0.188800	0.486600
O381	O38	0.195030	0.066200	0.484300
O391	O39	0.962280	0.929400	0.352800
N131	N13	0.138130	0.416700	0.365800
N141	N14	0.845050	0.679800	0.384500
N151	N15	0.939540	0.058700	0.342000
H731	H73	0.950000	0.107000	0.348700
C1131	C113	0.020610	0.030500	0.390800
C1141	C114	0.029300	0.109300	0.412900
H741	H74	0.004300	0.145800	0.409900
C1151	C115	0.074800	0.135700	0.439600
H751	H75	0.080100	0.189600	0.453400
C1161	C116	0.112040	0.082400	0.445700
C1171	C117	0.103040	0.003400	0.426300
H761	H76	0.127800	0.966500	0.431500
C1181	C118	0.057680	0.977500	0.399000
H771	H77	0.052400	0.923400	0.386100
C1191	C119	0.890820	0.052300	0.313100
C1201	C120	0.864420	0.982300	0.318500
H781	H78	0.878600	0.935300	0.340900
C1211	C121	0.816270	0.983300	0.290000
C1221	C122	0.795200	0.051900	0.255300
H791	H79	0.763200	0.051300	0.235900
C1231	C123	0.821230	0.122400	0.248900
C1241	C124	0.869210	0.121500	0.278900
H801	H80	0.887000	0.168400	0.275900
C1251	C125	0.786300	0.910600	0.304400
C1261	C126	0.798920	0.196100	0.208700
C1271	C127	0.161120	0.113600	0.474800
C1281	C128	0.971760	0.000900	0.360400
C1291	C129	0.095920	0.380900	0.368500
H811	H81	0.094500	0.325100	0.368300
C1301	C130	0.054200	0.424100	0.371600
H821	H82	0.025200	0.397300	0.372700
C1311	C131	0.055300	0.506300	0.372900
C1321	C132	0.098800	0.543100	0.371700
H831	H83	0.101000	0.598800	0.372300
C1331	C133	0.139400	0.496600	0.369500
H841	H84	0.168800	0.522100	0.370600
C1341	C134	0.887400	0.712400	0.371800
H851	H85	0.889500	0.767900	0.366500
C1351	C135	0.928100	0.667500	0.366300
H861	H86	0.956900	0.692700	0.357500
C1361	C136	0.926090	0.583900	0.374000
C1371	C137	0.881700	0.550700	0.382800
H871	H87	0.878100	0.495300	0.385400
C1381	C138	0.842980	0.600200	0.387800
H881	H88	0.813400	0.576500	0.393700
C1391	C139	0.012500	0.557300	0.374700
H891	H89	0.017300	0.612500	0.376800
C1401	C140	0.968000	0.532100	0.373700
H901	H90	0.962900	0.476900	0.372600
O401	O40	0.732910	0.825510	0.473000
Zn111	Zn11	0.198420	0.352080	0.359020
Zn121	Zn12	0.288560	0.252700	0.425050
O411	O41	0.241420	0.421500	0.295200
O421	O42	0.305750	0.344960	0.323700
O431	O43	0.324190	0.759770	0.212800
O441	O44	0.257730	0.692070	0.174200
O451	O45	0.663550	0.688800	0.486600
O461	O46	0.695030	0.566200	0.484300
O471	O47	0.462280	0.429400	0.352800
N161	N16	0.638130	0.916700	0.365800
N171	N17	0.345050	0.179800	0.384500
N181	N18	0.439540	0.558700	0.342000
H911	H91	0.450000	0.607000	0.348700
C1411	C141	0.520610	0.530500	0.390800
C1421	C142	0.529300	0.609300	0.412900
H921	H92	0.504300	0.645800	0.409900
C1431	C143	0.574800	0.635700	0.439600
H931	H93	0.580100	0.689600	0.453400
C1441	C144	0.612040	0.582400	0.445700
C1451	C145	0.603040	0.503400	0.426300
H941	H94	0.627800	0.466500	0.431500
C1461	C146	0.557680	0.477500	0.399000
H951	H95	0.552400	0.423400	0.386100
C1471	C147	0.390820	0.552300	0.313100
C1481	C148	0.364420	0.482300	0.318500
H961	H96	0.378600	0.435300	0.340900
C1491	C149	0.316270	0.483300	0.290000
C1501	C150	0.295200	0.551900	0.255300
H971	H97	0.263200	0.551300	0.235900
C1511	C151	0.321230	0.622400	0.248900
C1521	C152	0.369210	0.621500	0.278900
H981	H98	0.387000	0.668400	0.275900
C1531	C153	0.286300	0.410600	0.304400
C1541	C154	0.298920	0.696100	0.208700
C1551	C155	0.661120	0.613600	0.474800
C1561	C156	0.471760	0.500900	0.360400
C1571	C157	0.595920	0.880900	0.368500
H991	H99	0.594500	0.825100	0.368300
C1581	C158	0.554200	0.924100	0.371600
H1001	H100	0.525200	0.897300	0.372700
C1591	C159	0.555300	0.006300	0.372900
C1601	C160	0.598800	0.043100	0.371700
H1011	H101	0.601000	0.098800	0.372300
C1611	C161	0.639400	0.996600	0.369500
H1021	H102	0.668800	0.022100	0.370600
C1621	C162	0.387400	0.212400	0.371800
H1031	H103	0.389500	0.267900	0.366500
C1631	C163	0.428100	0.167500	0.366300
H1041	H104	0.456900	0.192700	0.357500
C1641	C164	0.426090	0.083900	0.374000
C1651	C165	0.381700	0.050700	0.382800
H1051	H105	0.378100	0.995300	0.385400
C1661	C166	0.342980	0.100200	0.387800
H1061	H106	0.313400	0.076500	0.393700
C1671	C167	0.512500	0.057300	0.374700
H1071	H107	0.517300	0.112500	0.376800
C1681	C168	0.468000	0.032100	0.373700
H1081	H108	0.462900	0.976900	0.372600
O481	O48	0.232910	0.325510	0.473000
Zn131	Zn13	0.301580	0.852080	0.140980
Zn141	Zn14	0.211440	0.752700	0.074950
O491	O49	0.258580	0.921500	0.204800
O501	O50	0.194250	0.844960	0.176300
O511	O51	0.175810	0.259770	0.287200
O521	O52	0.242270	0.192070	0.325800
O531	O53	0.836450	0.188800	0.013400
O541	O54	0.804970	0.066200	0.015700
O551	O55	0.037720	0.929400	0.147200
N191	N19	0.861870	0.416700	0.134200
N201	N20	0.154950	0.679800	0.115500
N211	N21	0.060460	0.058700	0.158000
H1091	H109	0.050000	0.107000	0.151300
C1691	C169	0.979390	0.030500	0.109200
C1701	C170	0.970700	0.109300	0.087100
H1101	H110	0.995700	0.145800	0.090100
C1711	C171	0.925200	0.135700	0.060400
H1111	H111	0.919900	0.189600	0.046600
C1721	C172	0.887960	0.082400	0.054300
C1731	C173	0.896960	0.003400	0.073700
H1121	H112	0.872200	0.966500	0.068500
C1741	C174	0.942320	0.977500	0.101000
H1131	H113	0.947600	0.923400	0.113900
C1751	C175	0.109180	0.052300	0.186900
C1761	C176	0.135580	0.982300	0.181500
H1141	H114	0.121400	0.935300	0.159100
C1771	C177	0.183730	0.983300	0.210000
C1781	C178	0.204800	0.051900	0.244700
H1151	H115	0.236800	0.051300	0.264100
C1791	C179	0.178770	0.122400	0.251100
C1801	C180	0.130790	0.121500	0.221100
H1161	H116	0.113000	0.168400	0.224100
C1811	C181	0.213700	0.910600	0.195600
C1821	C182	0.201080	0.196100	0.291300
C1831	C183	0.838880	0.113600	0.025200
C1841	C184	0.028240	0.000900	0.139600
C1851	C185	0.904080	0.380900	0.131500
H1171	H117	0.905500	0.325100	0.131700
C1861	C186	0.945800	0.424100	0.128400
H1181	H118	0.974800	0.397300	0.127300
C1871	C187	0.944700	0.506300	0.127100
C1881	C188	0.901200	0.543100	0.128300
H1191	H119	0.899000	0.598800	0.127700
C1891	C189	0.860600	0.496600	0.130500
H1201	H120	0.831200	0.522100	0.129400
C1901	C190	0.112600	0.712400	0.128200
H1211	H121	0.110500	0.767900	0.133500
C1911	C191	0.071900	0.667500	0.133700
H1221	H122	0.043100	0.692700	0.142500
C1921	C192	0.073910	0.583900	0.126000
C1931	C193	0.118300	0.550700	0.117200
H1231	H123	0.121900	0.495300	0.114600
C1941	C194	0.157020	0.600200	0.112200
H1241	H124	0.186600	0.576500	0.106300
C1951	C195	0.987500	0.557300	0.125300
H1251	H125	0.982700	0.612500	0.123200
C1961	C196	0.032000	0.532100	0.126300
H1261	H126	0.037100	0.476900	0.127400
O561	O56	0.267090	0.825510	0.027000
Zn151	Zn15	0.801580	0.352080	0.140980
Zn161	Zn16	0.711440	0.252700	0.074950
O571	O57	0.758580	0.421500	0.204800
O581	O58	0.694250	0.344960	0.176300
O591	O59	0.675810	0.759770	0.287200
O601	O60	0.742270	0.692070	0.325800
O611	O61	0.336450	0.688800	0.013400
O621	O62	0.304970	0.566200	0.015700
O631	O63	0.537720	0.429400	0.147200
N221	N22	0.361870	0.916700	0.134200
N231	N23	0.654950	0.179800	0.115500
N241	N24	0.560460	0.558700	0.158000
H1271	H127	0.550000	0.607000	0.151300
C1971	C197	0.479390	0.530500	0.109200
C1981	C198	0.470700	0.609300	0.087100
H1281	H128	0.495700	0.645800	0.090100
C1991	C199	0.425200	0.635700	0.060400
H1291	H129	0.419900	0.689600	0.046600
C2001	C200	0.387960	0.582400	0.054300
C2011	C201	0.396960	0.503400	0.073700
H1301	H130	0.372200	0.466500	0.068500
C2021	C202	0.442320	0.477500	0.101000
H1311	H131	0.447600	0.423400	0.113900
C2031	C203	0.609180	0.552300	0.186900
C2041	C204	0.635580	0.482300	0.181500
H1321	H132	0.621400	0.435300	0.159100
C2051	C205	0.683730	0.483300	0.210000
C2061	C206	0.704800	0.551900	0.244700
H1331	H133	0.736800	0.551300	0.264100
C2071	C207	0.678770	0.622400	0.251100
C2081	C208	0.630790	0.621500	0.221100
H1341	H134	0.613000	0.668400	0.224100
C2091	C209	0.713700	0.410600	0.195600
C2101	C210	0.701080	0.696100	0.291300
C2111	C211	0.338880	0.613600	0.025200
C2121	C212	0.528240	0.500900	0.139600
C2131	C213	0.404080	0.880900	0.131500
H1351	H135	0.405500	0.825100	0.131700
C2141	C214	0.445800	0.924100	0.128400
H1361	H136	0.474800	0.897300	0.127300
C2151	C215	0.444700	0.006300	0.127100
C2161	C216	0.401200	0.043100	0.128300
H1371	H137	0.399000	0.098800	0.127700
C2171	C217	0.360600	0.996600	0.130500
H1381	H138	0.331200	0.022100	0.129400
C2181	C218	0.612600	0.212400	0.128200
H1391	H139	0.610500	0.267900	0.133500
C2191	C219	0.571900	0.167500	0.133700
H1401	H140	0.543100	0.192700	0.142500
C2201	C220	0.573910	0.083900	0.126000
C2211	C221	0.618300	0.050700	0.117200
H1411	H141	0.621900	0.995300	0.114600
C2221	C222	0.657020	0.100200	0.112200
H1421	H142	0.686600	0.076500	0.106300
C2231	C223	0.487500	0.057300	0.125300
H1431	H143	0.482700	0.112500	0.123200
C2241	C224	0.532000	0.032100	0.126300
H1441	H144	0.537100	0.976900	0.127400
O641	O64	0.767090	0.325510	0.027000
