data_ZIKJOU_clean_PM
_symmetry_space_group_name_H-M	'P1'
_cell_length_a	10.632500
_cell_length_b	10.725800
_cell_length_c	18.353200
_cell_angle_alpha	76.671000
_cell_angle_beta	86.717000
_cell_angle_gamma	74.278000
_symmetry_Int_Tables_number 1

loop_
_symmetry_equiv_pos_as_xyz
'x,y,z'

loop_
_atom_site_label
_atom_site_type_symbol
_atom_site_fract_x
_atom_site_fract_y
_atom_site_fract_z
Cu11	Cu1	0.070690	0.897080	0.975480
Cu21	Cu2	0.909790	0.084550	0.453890
Cu31	Cu3	0.929310	0.102920	0.024520
Cu41	Cu4	0.090210	0.915450	0.546110
H11	H1	0.664900	0.281900	0.832700
H21	H2	0.298700	0.106000	0.819700
H31	H3	0.688000	0.304100	0.608900
H41	H4	0.196400	0.358500	0.956900
H51	H5	0.514300	0.448600	0.597300
H61	H6	0.416600	0.557600	0.634700
H71	H7	0.324500	0.489500	0.888500
H81	H8	0.430700	0.236200	0.752200
H91	H9	0.534700	0.473500	0.804100
H101	H10	0.411500	0.555000	0.751200
H111	H11	0.725400	0.521500	0.693100
H121	H12	0.949700	0.021500	0.747600
H131	H13	0.861700	0.660900	0.650600
H141	H14	0.483600	0.708800	0.518100
H151	H15	0.616500	0.851600	0.475000
H161	H16	0.335100	0.718100	0.167300
H171	H17	0.701300	0.894000	0.180300
H181	H18	0.312000	0.695900	0.391100
H191	H19	0.803600	0.641500	0.043100
H201	H20	0.485700	0.551400	0.402700
H211	H21	0.583400	0.442400	0.365300
H221	H22	0.675500	0.510500	0.111500
H231	H23	0.569300	0.763800	0.247800
H241	H24	0.465300	0.526500	0.195900
H251	H25	0.588500	0.445000	0.248800
H261	H26	0.274600	0.478500	0.306900
H271	H27	0.050300	0.978500	0.252400
H281	H28	0.138300	0.339100	0.349400
H291	H29	0.516400	0.291200	0.481900
H301	H30	0.383500	0.148400	0.525000
C11	C1	0.874300	0.081600	0.879100
C21	C2	0.649600	0.312400	0.718400
C31	C3	0.151200	0.137000	0.937300
C41	C4	0.704100	0.249000	0.790700
C51	C5	0.811500	0.141800	0.801500
C61	C6	0.303500	0.184400	0.833900
C71	C7	0.825900	0.153900	0.671400
C81	C8	0.717200	0.262600	0.658800
C91	C9	0.389500	0.376700	0.814200
C101	C10	0.233600	0.222200	0.893800
C111	C11	0.243000	0.333600	0.914500
C121	C12	0.508300	0.503700	0.634500
C131	C13	0.844500	0.854000	0.530000
C141	C14	0.320400	0.411200	0.873900
C151	C15	0.382100	0.262100	0.793800
C161	C16	0.470000	0.465200	0.770100
C171	C17	0.595500	0.597800	0.608800
C181	C18	0.704400	0.587200	0.647800
C191	C19	0.754800	0.767000	0.557100
C201	C20	0.874000	0.094700	0.740400
C211	C21	0.785700	0.670300	0.622900
C221	C22	0.561400	0.698100	0.544600
C231	C23	0.640500	0.782800	0.518800
C241	C24	0.894200	0.105300	0.604100
C251	C25	0.125700	0.918400	0.120900
C261	C26	0.350400	0.687600	0.281600
C271	C27	0.848800	0.863000	0.062700
C281	C28	0.295900	0.751000	0.209300
C291	C29	0.188500	0.858200	0.198500
C301	C30	0.696500	0.815600	0.166100
C311	C31	0.174100	0.846100	0.328600
C321	C32	0.282800	0.737400	0.341200
C331	C33	0.610500	0.623300	0.185800
C341	C34	0.766400	0.777800	0.106200
C351	C35	0.757000	0.666400	0.085500
C361	C36	0.491700	0.496300	0.365500
C371	C37	0.155500	0.146000	0.470000
C381	C38	0.679600	0.588800	0.126100
C391	C39	0.617900	0.737900	0.206200
C401	C40	0.530000	0.534800	0.229900
C411	C41	0.404500	0.402200	0.391200
C421	C42	0.295600	0.412800	0.352200
C431	C43	0.245200	0.233000	0.442900
C441	C44	0.126000	0.905300	0.259600
C451	C45	0.214300	0.329700	0.377100
C461	C46	0.438600	0.301900	0.455400
C471	C47	0.359500	0.217200	0.481200
C481	C48	0.105800	0.894700	0.395900
N11	N1	0.538600	0.416900	0.707000
N21	N2	0.461400	0.583100	0.293000
O11	O1	0.175500	0.021200	0.930400
O21	O2	0.059100	0.193400	0.975800
O31	O3	0.801100	0.958800	0.481700
O41	O4	0.957400	0.816600	0.559900
O51	O5	0.841700	0.156300	0.541200
O61	O6	0.837100	0.150800	0.927800
O71	O7	0.957200	0.974500	0.886900
O81	O8	0.997100	0.015200	0.619000
O91	O9	0.824500	0.978800	0.069600
O101	O10	0.940900	0.806600	0.024200
O111	O11	0.198900	0.041200	0.518300
O121	O12	0.042600	0.183400	0.440100
O131	O13	0.158300	0.843700	0.458800
O141	O14	0.162900	0.849200	0.072200
O151	O15	0.042800	0.025500	0.113100
O161	O16	0.002900	0.984800	0.381000
