data_ZILBIH_clean_PM
_symmetry_space_group_name_H-M	'P1'
_cell_length_a	12.703500
_cell_length_b	22.659100
_cell_length_c	22.659100
_cell_angle_alpha	90.000000
_cell_angle_beta	90.000000
_cell_angle_gamma	90.000000
_symmetry_Int_Tables_number 1

loop_
_symmetry_equiv_pos_as_xyz
'x,y,z'

loop_
_atom_site_label
_atom_site_type_symbol
_atom_site_fract_x
_atom_site_fract_y
_atom_site_fract_z
Co11	Co1	0.752880	0.743120	0.737550
Co21	Co2	0.752880	0.256880	0.262450
Co31	Co3	0.247120	0.756880	0.237550
Co41	Co4	0.247120	0.243120	0.762450
H11	H1	0.475400	0.864900	0.774100
H21	H2	0.551600	0.110700	0.722000
H31	H3	0.938900	0.775800	0.374500
H41	H4	0.378800	0.952400	0.772900
H51	H5	0.109800	0.695400	0.525200
H61	H6	0.261700	0.685600	0.350800
H71	H7	0.459500	0.198400	0.733200
H81	H8	0.698000	0.941600	0.671900
H91	H9	0.038800	0.790200	0.290900
H101	H10	0.190000	0.113400	0.738400
H111	H11	0.273900	0.023700	0.729000
H121	H12	0.600300	0.028500	0.670500
H131	H13	0.747000	0.724600	0.527500
H141	H14	0.836700	0.727500	0.438100
H151	H15	0.020700	0.693800	0.613800
H161	H16	0.166800	0.666600	0.435400
H171	H17	0.475400	0.135100	0.225900
H181	H18	0.551600	0.889300	0.278000
H191	H19	0.938900	0.224200	0.625500
H201	H20	0.378800	0.047600	0.227100
H211	H21	0.109800	0.304600	0.474800
H221	H22	0.261700	0.314400	0.649200
H231	H23	0.459500	0.801600	0.266800
H241	H24	0.698000	0.058400	0.328100
H251	H25	0.038800	0.209800	0.709100
H261	H26	0.190000	0.886600	0.261600
H271	H27	0.273900	0.976300	0.271000
H281	H28	0.600300	0.971500	0.329500
H291	H29	0.747000	0.275400	0.472500
H301	H30	0.836700	0.272500	0.561900
H311	H31	0.020700	0.306200	0.386200
H321	H32	0.166800	0.333400	0.564600
H331	H33	0.524600	0.635100	0.274100
H341	H34	0.448400	0.389300	0.222000
H351	H35	0.061100	0.724200	0.874500
H361	H36	0.621200	0.547600	0.272900
H371	H37	0.890200	0.804600	0.025200
H381	H38	0.738300	0.814400	0.850800
H391	H39	0.540500	0.301600	0.233200
H401	H40	0.302000	0.558400	0.171900
H411	H41	0.961200	0.709800	0.790900
H421	H42	0.810000	0.386600	0.238400
H431	H43	0.726100	0.476300	0.229000
H441	H44	0.399700	0.471500	0.170500
H451	H45	0.253000	0.775400	0.027500
H461	H46	0.163300	0.772500	0.938100
H471	H47	0.979300	0.806200	0.113800
H481	H48	0.833200	0.833400	0.935400
H491	H49	0.524600	0.364900	0.725900
H501	H50	0.448400	0.610700	0.778000
H511	H51	0.061100	0.275800	0.125500
H521	H52	0.621200	0.452400	0.727100
H531	H53	0.890200	0.195400	0.974800
H541	H54	0.738300	0.185600	0.149200
H551	H55	0.540500	0.698400	0.766800
H561	H56	0.302000	0.441600	0.828100
H571	H57	0.961200	0.290200	0.209100
H581	H58	0.810000	0.613400	0.761600
H591	H59	0.726100	0.523700	0.771000
H601	H60	0.399700	0.528500	0.829500
H611	H61	0.253000	0.224600	0.972500
H621	H62	0.163300	0.227500	0.061900
H631	H63	0.979300	0.193800	0.886200
H641	H64	0.833200	0.166600	0.064600
C11	C1	0.662900	0.840200	0.728100
C21	C2	0.597600	0.895600	0.723800
C31	C3	0.875400	0.711100	0.580000
C41	C4	0.481800	0.999800	0.723200
C51	C5	0.501400	0.898400	0.753600
C61	C6	0.820700	0.716100	0.637600
C71	C7	0.983800	0.713800	0.472100
C81	C8	0.042900	0.721200	0.415700
C91	C9	0.423800	0.056800	0.725900
C101	C10	0.477200	0.110000	0.726300
C111	C11	0.005500	0.757100	0.370900
C121	C12	0.444400	0.950400	0.752900
C131	C13	0.036100	0.702400	0.525600
C141	C14	0.195200	0.704100	0.355700
C151	C15	0.421500	0.162300	0.733000
C161	C16	0.633400	0.943800	0.692900
C171	C17	0.065400	0.765200	0.321100
C181	C18	0.264600	0.112700	0.736200
C191	C19	0.314100	0.059000	0.730200
C201	C20	0.575500	0.995500	0.692300
C211	C21	0.821300	0.719700	0.527000
C221	C22	0.874500	0.721300	0.473800
C231	C23	0.983300	0.701300	0.578200
C241	C24	0.139700	0.693100	0.406600
C251	C25	0.662900	0.159800	0.271900
C261	C26	0.597600	0.104400	0.276200
C271	C27	0.875400	0.288900	0.420000
C281	C28	0.481800	0.000200	0.276800
C291	C29	0.501400	0.101600	0.246400
C301	C30	0.820700	0.283900	0.362400
C311	C31	0.983800	0.286200	0.527900
C321	C32	0.042900	0.278800	0.584300
C331	C33	0.423800	0.943200	0.274100
C341	C34	0.477200	0.890000	0.273700
C351	C35	0.005500	0.242900	0.629100
C361	C36	0.444400	0.049600	0.247100
C371	C37	0.036100	0.297600	0.474400
C381	C38	0.195200	0.295900	0.644300
C391	C39	0.421500	0.837700	0.267000
C401	C40	0.633400	0.056200	0.307100
C411	C41	0.065400	0.234800	0.678900
C421	C42	0.264600	0.887300	0.263800
C431	C43	0.314100	0.941000	0.269800
C441	C44	0.575500	0.004500	0.307700
C451	C45	0.821300	0.280300	0.473000
C461	C46	0.874500	0.278700	0.526200
C471	C47	0.983300	0.298700	0.421800
C481	C48	0.139700	0.306900	0.593400
C491	C49	0.337100	0.659800	0.228100
C501	C50	0.402400	0.604400	0.223800
C511	C51	0.124600	0.788900	0.080000
C521	C52	0.518200	0.500200	0.223200
C531	C53	0.498600	0.601600	0.253600
C541	C54	0.179300	0.783900	0.137600
C551	C55	0.016200	0.786200	0.972100
C561	C56	0.957100	0.778800	0.915700
C571	C57	0.576200	0.443200	0.225900
C581	C58	0.522800	0.390000	0.226300
C591	C59	0.994500	0.742900	0.870900
C601	C60	0.555600	0.549600	0.252900
C611	C61	0.963900	0.797600	0.025600
C621	C62	0.804800	0.795900	0.855700
C631	C63	0.578500	0.337700	0.233000
C641	C64	0.366600	0.556200	0.192900
C651	C65	0.934600	0.734800	0.821100
C661	C66	0.735400	0.387300	0.236200
C671	C67	0.685900	0.441000	0.230200
C681	C68	0.424500	0.504500	0.192300
C691	C69	0.178700	0.780300	0.027000
C701	C70	0.125500	0.778700	0.973800
C711	C71	0.016700	0.798700	0.078200
C721	C72	0.860300	0.806900	0.906600
C731	C73	0.337100	0.340200	0.771900
C741	C74	0.402400	0.395600	0.776200
C751	C75	0.124600	0.211100	0.920000
C761	C76	0.518200	0.499800	0.776800
C771	C77	0.498600	0.398400	0.746400
C781	C78	0.179300	0.216100	0.862400
C791	C79	0.016200	0.213800	0.027900
C801	C80	0.957100	0.221200	0.084300
C811	C81	0.576200	0.556800	0.774100
C821	C82	0.522800	0.610000	0.773700
C831	C83	0.994500	0.257100	0.129100
C841	C84	0.555600	0.450400	0.747100
C851	C85	0.963900	0.202400	0.974400
C861	C86	0.804800	0.204100	0.144300
C871	C87	0.578500	0.662300	0.767000
C881	C88	0.366600	0.443800	0.807100
C891	C89	0.934600	0.265200	0.178900
C901	C90	0.735400	0.612700	0.763800
C911	C91	0.685900	0.559000	0.769800
C921	C92	0.424500	0.495500	0.807700
C931	C93	0.178700	0.219700	0.973000
C941	C94	0.125500	0.221300	0.026200
C951	C95	0.016700	0.201300	0.921800
C961	C96	0.860300	0.193100	0.093400
N11	N1	0.316800	0.164280	0.739150
N21	N2	0.160400	0.739560	0.312930
N31	N3	0.316800	0.835720	0.260850
N41	N4	0.160400	0.260440	0.687070
N51	N5	0.683200	0.335720	0.239150
N61	N6	0.839600	0.760440	0.812930
N71	N7	0.683200	0.664280	0.760850
N81	N8	0.839600	0.239560	0.187070
O11	O1	0.874000	0.716790	0.684470
O21	O2	0.622900	0.794750	0.752630
O31	O3	0.754600	0.839220	0.708020
O41	O4	0.721100	0.722630	0.639700
O51	O5	0.874000	0.283210	0.315530
O61	O6	0.622900	0.205250	0.247370
O71	O7	0.754600	0.160780	0.291980
O81	O8	0.721100	0.277370	0.360300
O91	O9	0.126000	0.783210	0.184470
O101	O10	0.377100	0.705250	0.252630
O111	O11	0.245400	0.660780	0.208020
O121	O12	0.278900	0.777370	0.139700
O131	O13	0.126000	0.216790	0.815530
O141	O14	0.377100	0.294750	0.747370
O151	O15	0.245400	0.339220	0.791980
O161	O16	0.278900	0.222630	0.860300
Co51	Co5	0.752880	0.762450	0.243120
Co61	Co6	0.752880	0.237550	0.756880
Co71	Co7	0.247120	0.737550	0.743120
Co81	Co8	0.247120	0.262450	0.256880
H651	H65	0.475400	0.725900	0.364900
H661	H66	0.551600	0.778000	0.610700
H671	H67	0.938900	0.125500	0.275800
H681	H68	0.378800	0.727100	0.452400
H691	H69	0.109800	0.974800	0.195400
H701	H70	0.261700	0.149200	0.185600
H711	H71	0.459500	0.766800	0.698400
H721	H72	0.698000	0.828100	0.441600
H731	H73	0.038800	0.209100	0.290200
H741	H74	0.190000	0.761600	0.613400
H751	H75	0.273900	0.771000	0.523700
H761	H76	0.600300	0.829500	0.528500
H771	H77	0.747000	0.972500	0.224600
H781	H78	0.836700	0.061900	0.227500
H791	H79	0.020700	0.886200	0.193800
H801	H80	0.166800	0.064600	0.166600
H811	H81	0.475400	0.274100	0.635100
H821	H82	0.551600	0.222000	0.389300
H831	H83	0.938900	0.874500	0.724200
H841	H84	0.378800	0.272900	0.547600
H851	H85	0.109800	0.025200	0.804600
H861	H86	0.261700	0.850800	0.814400
H871	H87	0.459500	0.233200	0.301600
H881	H88	0.698000	0.171900	0.558400
H891	H89	0.038800	0.790900	0.709800
H901	H90	0.190000	0.238400	0.386600
H911	H91	0.273900	0.229000	0.476300
H921	H92	0.600300	0.170500	0.471500
H931	H93	0.747000	0.027500	0.775400
H941	H94	0.836700	0.938100	0.772500
H951	H95	0.020700	0.113800	0.806200
H961	H96	0.166800	0.935400	0.833400
H971	H97	0.524600	0.774100	0.864900
H981	H98	0.448400	0.722000	0.110700
H991	H99	0.061100	0.374500	0.775800
H1001	H100	0.621200	0.772900	0.952400
H1011	H101	0.890200	0.525200	0.695400
H1021	H102	0.738300	0.350800	0.685600
H1031	H103	0.540500	0.733200	0.198400
H1041	H104	0.302000	0.671900	0.941600
H1051	H105	0.961200	0.290900	0.790200
H1061	H106	0.810000	0.738400	0.113400
H1071	H107	0.726100	0.729000	0.023700
H1081	H108	0.399700	0.670500	0.028500
H1091	H109	0.253000	0.527500	0.724600
H1101	H110	0.163300	0.438100	0.727500
H1111	H111	0.979300	0.613800	0.693800
H1121	H112	0.833200	0.435400	0.666600
H1131	H113	0.524600	0.225900	0.135100
H1141	H114	0.448400	0.278000	0.889300
H1151	H115	0.061100	0.625500	0.224200
H1161	H116	0.621200	0.227100	0.047600
H1171	H117	0.890200	0.474800	0.304600
H1181	H118	0.738300	0.649200	0.314400
H1191	H119	0.540500	0.266800	0.801600
H1201	H120	0.302000	0.328100	0.058400
H1211	H121	0.961200	0.709100	0.209800
H1221	H122	0.810000	0.261600	0.886600
H1231	H123	0.726100	0.271000	0.976300
H1241	H124	0.399700	0.329500	0.971500
H1251	H125	0.253000	0.472500	0.275400
H1261	H126	0.163300	0.561900	0.272500
H1271	H127	0.979300	0.386200	0.306200
H1281	H128	0.833200	0.564600	0.333400
C971	C97	0.662900	0.771900	0.340200
C981	C98	0.597600	0.776200	0.395600
C991	C99	0.875400	0.920000	0.211100
C1001	C100	0.481800	0.776800	0.499800
C1011	C101	0.501400	0.746400	0.398400
C1021	C102	0.820700	0.862400	0.216100
C1031	C103	0.983800	0.027900	0.213800
C1041	C104	0.042900	0.084300	0.221200
C1051	C105	0.423800	0.774100	0.556800
C1061	C106	0.477200	0.773700	0.610000
C1071	C107	0.005500	0.129100	0.257100
C1081	C108	0.444400	0.747100	0.450400
C1091	C109	0.036100	0.974400	0.202400
C1101	C110	0.195200	0.144300	0.204100
C1111	C111	0.421500	0.767000	0.662300
C1121	C112	0.633400	0.807100	0.443800
C1131	C113	0.065400	0.178900	0.265200
C1141	C114	0.264600	0.763800	0.612700
C1151	C115	0.314100	0.769800	0.559000
C1161	C116	0.575500	0.807700	0.495500
C1171	C117	0.821300	0.973000	0.219700
C1181	C118	0.874500	0.026200	0.221300
C1191	C119	0.983300	0.921800	0.201300
C1201	C120	0.139700	0.093400	0.193100
C1211	C121	0.662900	0.228100	0.659800
C1221	C122	0.597600	0.223800	0.604400
C1231	C123	0.875400	0.080000	0.788900
C1241	C124	0.481800	0.223200	0.500200
C1251	C125	0.501400	0.253600	0.601600
C1261	C126	0.820700	0.137600	0.783900
C1271	C127	0.983800	0.972100	0.786200
C1281	C128	0.042900	0.915700	0.778800
C1291	C129	0.423800	0.225900	0.443200
C1301	C130	0.477200	0.226300	0.390000
C1311	C131	0.005500	0.870900	0.742900
C1321	C132	0.444400	0.252900	0.549600
C1331	C133	0.036100	0.025600	0.797600
C1341	C134	0.195200	0.855700	0.795900
C1351	C135	0.421500	0.233000	0.337700
C1361	C136	0.633400	0.192900	0.556200
C1371	C137	0.065400	0.821100	0.734800
C1381	C138	0.264600	0.236200	0.387300
C1391	C139	0.314100	0.230200	0.441000
C1401	C140	0.575500	0.192300	0.504500
C1411	C141	0.821300	0.027000	0.780300
C1421	C142	0.874500	0.973800	0.778700
C1431	C143	0.983300	0.078200	0.798700
C1441	C144	0.139700	0.906600	0.806900
C1451	C145	0.337100	0.728100	0.840200
C1461	C146	0.402400	0.723800	0.895600
C1471	C147	0.124600	0.580000	0.711100
C1481	C148	0.518200	0.723200	0.999800
C1491	C149	0.498600	0.753600	0.898400
C1501	C150	0.179300	0.637600	0.716100
C1511	C151	0.016200	0.472100	0.713800
C1521	C152	0.957100	0.415700	0.721200
C1531	C153	0.576200	0.725900	0.056800
C1541	C154	0.522800	0.726300	0.110000
C1551	C155	0.994500	0.370900	0.757100
C1561	C156	0.555600	0.752900	0.950400
C1571	C157	0.963900	0.525600	0.702400
C1581	C158	0.804800	0.355700	0.704100
C1591	C159	0.578500	0.733000	0.162300
C1601	C160	0.366600	0.692900	0.943800
C1611	C161	0.934600	0.321100	0.765200
C1621	C162	0.735400	0.736200	0.112700
C1631	C163	0.685900	0.730200	0.059000
C1641	C164	0.424500	0.692300	0.995500
C1651	C165	0.178700	0.527000	0.719700
C1661	C166	0.125500	0.473800	0.721300
C1671	C167	0.016700	0.578200	0.701300
C1681	C168	0.860300	0.406600	0.693100
C1691	C169	0.337100	0.271900	0.159800
C1701	C170	0.402400	0.276200	0.104400
C1711	C171	0.124600	0.420000	0.288900
C1721	C172	0.518200	0.276800	0.000200
C1731	C173	0.498600	0.246400	0.101600
C1741	C174	0.179300	0.362400	0.283900
C1751	C175	0.016200	0.527900	0.286200
C1761	C176	0.957100	0.584300	0.278800
C1771	C177	0.576200	0.274100	0.943200
C1781	C178	0.522800	0.273700	0.890000
C1791	C179	0.994500	0.629100	0.242900
C1801	C180	0.555600	0.247100	0.049600
C1811	C181	0.963900	0.474400	0.297600
C1821	C182	0.804800	0.644300	0.295900
C1831	C183	0.578500	0.267000	0.837700
C1841	C184	0.366600	0.307100	0.056200
C1851	C185	0.934600	0.678900	0.234800
C1861	C186	0.735400	0.263800	0.887300
C1871	C187	0.685900	0.269800	0.941000
C1881	C188	0.424500	0.307700	0.004500
C1891	C189	0.178700	0.473000	0.280300
C1901	C190	0.125500	0.526200	0.278700
C1911	C191	0.016700	0.421800	0.298700
C1921	C192	0.860300	0.593400	0.306900
N91	N9	0.316800	0.760850	0.664280
N101	N10	0.160400	0.187070	0.239560
N111	N11	0.316800	0.239150	0.335720
N121	N12	0.160400	0.812930	0.760440
N131	N13	0.683200	0.739150	0.164280
N141	N14	0.839600	0.312930	0.739560
N151	N15	0.683200	0.260850	0.835720
N161	N16	0.839600	0.687070	0.260440
O171	O17	0.874000	0.815530	0.216790
O181	O18	0.622900	0.747370	0.294750
O191	O19	0.754600	0.791980	0.339220
O201	O20	0.721100	0.860300	0.222630
O211	O21	0.874000	0.184470	0.783210
O221	O22	0.622900	0.252630	0.705250
O231	O23	0.754600	0.208020	0.660780
O241	O24	0.721100	0.139700	0.777370
O251	O25	0.126000	0.684470	0.716790
O261	O26	0.377100	0.752630	0.794750
O271	O27	0.245400	0.708020	0.839220
O281	O28	0.278900	0.639700	0.722630
O291	O29	0.126000	0.315530	0.283210
O301	O30	0.377100	0.247370	0.205250
O311	O31	0.245400	0.291980	0.160780
O321	O32	0.278900	0.360300	0.277370
