data_ZILBED_clean_PM
_symmetry_space_group_name_H-M	'P1'
_cell_length_a	10.599000
_cell_length_b	17.021800
_cell_length_c	18.306400
_cell_angle_alpha	106.073000
_cell_angle_beta	90.000000
_cell_angle_gamma	90.000000
_symmetry_Int_Tables_number 1

loop_
_symmetry_equiv_pos_as_xyz
'x,y,z'

loop_
_atom_site_label
_atom_site_type_symbol
_atom_site_fract_x
_atom_site_fract_y
_atom_site_fract_z
Co11	Co1	0.534950	0.118800	0.602760
Co21	Co2	0.500090	0.868820	0.852840
Co31	Co3	0.465050	0.618800	0.102760
Co41	Co4	0.499910	0.368820	0.352840
H11	H1	0.415700	0.973900	0.372400
H21	H2	0.945200	0.900800	0.088900
H31	H3	0.406200	0.387700	0.084400
H41	H4	0.681200	0.956100	0.980500
H51	H5	0.681700	0.278000	0.225300
H61	H6	0.381700	0.411600	0.213700
H71	H7	0.400300	0.852800	0.123200
H81	H8	0.937800	0.720900	0.887600
H91	H9	0.708600	0.989100	0.112000
H101	H10	0.715400	0.252500	0.097000
H111	H11	0.884000	0.958000	0.858600
H121	H12	0.392100	0.948100	0.241300
H131	H13	0.771100	0.300400	0.989600
H141	H14	0.110300	0.776900	0.847600
H151	H15	0.389400	0.297200	0.963900
H161	H16	0.062100	0.017400	0.815200
H171	H17	0.767800	0.935600	0.213800
H181	H18	0.446400	0.074400	0.744700
H191	H19	0.379600	0.827000	0.991400
H201	H20	0.137600	0.944700	0.573700
H211	H21	0.724600	0.725500	0.917600
H221	H22	0.416000	0.255300	0.831400
H231	H23	0.111700	0.964500	0.038100
H241	H24	0.306100	0.017700	0.538700
H251	H25	0.280800	0.006400	0.786400
H261	H26	0.868600	0.784700	0.130900
H271	H27	0.792600	0.269300	0.857200
H281	H28	0.796300	0.958500	0.345000
H291	H29	0.897400	0.773400	0.662700
H301	H30	0.696900	0.728400	0.169400
H311	H31	0.067500	0.831200	0.624100
H321	H32	0.559200	0.665100	0.961200
H331	H33	0.584300	0.473900	0.872400
H341	H34	0.054800	0.400800	0.588900
H351	H35	0.593800	0.887700	0.584400
H361	H36	0.318800	0.456100	0.480500
H371	H37	0.318300	0.778000	0.725300
H381	H38	0.618300	0.911600	0.713700
H391	H39	0.599700	0.352800	0.623200
H401	H40	0.062200	0.220900	0.387600
H411	H41	0.291400	0.489100	0.612000
H421	H42	0.284600	0.752500	0.597000
H431	H43	0.116000	0.458000	0.358600
H441	H44	0.607900	0.448100	0.741300
H451	H45	0.228900	0.800400	0.489600
H461	H46	0.889700	0.276900	0.347600
H471	H47	0.610600	0.797200	0.463900
H481	H48	0.937900	0.517400	0.315200
H491	H49	0.232200	0.435600	0.713800
H501	H50	0.553600	0.574400	0.244700
H511	H51	0.620400	0.327000	0.491400
H521	H52	0.862400	0.444700	0.073700
H531	H53	0.275400	0.225500	0.417600
H541	H54	0.584000	0.755300	0.331400
H551	H55	0.888300	0.464500	0.538100
H561	H56	0.693900	0.517700	0.038700
H571	H57	0.719200	0.506400	0.286400
H581	H58	0.131400	0.284700	0.630900
H591	H59	0.207400	0.769300	0.357200
H601	H60	0.203700	0.458500	0.845000
H611	H61	0.102600	0.273400	0.162700
H621	H62	0.303100	0.228400	0.669400
H631	H63	0.932500	0.331200	0.124100
H641	H64	0.440800	0.165100	0.461200
C11	C1	0.488200	0.967400	0.340700
C21	C2	0.975900	0.876800	0.039000
C31	C3	0.463300	0.363400	0.111800
C41	C4	0.243500	0.913100	0.911900
C51	C5	0.761300	0.824400	0.793800
C61	C6	0.563100	0.923400	0.132500
C71	C7	0.077000	0.932900	0.714000
C81	C8	0.922300	0.804400	0.993400
C91	C9	0.624500	0.998300	0.458400
C101	C10	0.622600	0.242800	0.748400
C111	C11	0.622400	0.935500	0.009900
C121	C12	0.607200	0.974400	0.372500
C131	C13	0.624900	0.300100	0.196100
C141	C14	0.124600	0.876300	0.938900
C151	C15	0.869600	0.859400	0.765700
C161	C16	0.449600	0.377800	0.189600
C171	C17	0.459600	0.874800	0.095200
C181	C18	0.557000	0.315400	0.074700
C191	C19	0.579600	0.938600	0.215600
C201	C20	0.974300	0.769200	0.919800
C211	C21	0.640900	0.954400	0.089100
C221	C22	0.607900	0.265900	0.833000
C231	C23	0.644700	0.284000	0.120100
C241	C24	0.920000	0.932200	0.810500
C251	C25	0.812800	0.765400	0.019500
C261	C26	0.474200	0.951000	0.262800
C271	C27	0.183900	0.972800	0.686200
C281	C28	0.698300	0.292300	0.958100
C291	C29	0.575900	0.297700	0.990800
C301	C30	0.073800	0.803300	0.895600
C311	C31	0.471900	0.288900	0.942800
C321	C32	0.026500	0.968400	0.783900
C331	C33	0.696200	0.943100	0.246200
C341	C34	0.382300	0.048500	0.710000
C351	C35	0.447500	0.860200	0.016400
C361	C36	0.196900	0.972600	0.610800
C371	C37	0.720600	0.726700	0.969700
C381	C38	0.487400	0.268000	0.863900
C391	C39	0.077400	0.913900	0.009100
C401	C40	0.300700	0.015000	0.589800
C411	C41	0.282100	0.008800	0.735200
C421	C42	0.803800	0.761900	0.095500
C431	C43	0.710700	0.274900	0.879100
C441	C44	0.714000	0.958600	0.324400
C451	C45	0.929300	0.823400	0.694400
C461	C46	0.704200	0.726400	0.117200
C471	C47	0.028700	0.858100	0.671200
C481	C48	0.623000	0.690100	0.996400
C491	C49	0.511800	0.467400	0.840700
C501	C50	0.024100	0.376800	0.539000
C511	C51	0.536700	0.863400	0.611800
C521	C52	0.756500	0.413100	0.411900
C531	C53	0.238700	0.324400	0.293800
C541	C54	0.436900	0.423400	0.632500
C551	C55	0.923000	0.432900	0.214000
C561	C56	0.077700	0.304400	0.493400
C571	C57	0.375500	0.498300	0.958400
C581	C58	0.377400	0.742800	0.248400
C591	C59	0.377600	0.435500	0.509900
C601	C60	0.392800	0.474400	0.872500
C611	C61	0.375100	0.800100	0.696100
C621	C62	0.875400	0.376300	0.438900
C631	C63	0.130400	0.359400	0.265700
C641	C64	0.550400	0.877800	0.689600
C651	C65	0.540400	0.374800	0.595200
C661	C66	0.443000	0.815400	0.574700
C671	C67	0.420400	0.438600	0.715600
C681	C68	0.025700	0.269200	0.419800
C691	C69	0.359100	0.454400	0.589100
C701	C70	0.392100	0.765900	0.333000
C711	C71	0.355300	0.784000	0.620100
C721	C72	0.080000	0.432200	0.310500
C731	C73	0.187200	0.265400	0.519500
C741	C74	0.525800	0.451000	0.762800
C751	C75	0.816100	0.472800	0.186200
C761	C76	0.301700	0.792300	0.458100
C771	C77	0.424100	0.797700	0.490800
C781	C78	0.926200	0.303300	0.395600
C791	C79	0.528100	0.788900	0.442800
C801	C80	0.973500	0.468400	0.283900
C811	C81	0.303800	0.443100	0.746200
C821	C82	0.617700	0.548500	0.210000
C831	C83	0.552500	0.360200	0.516400
C841	C84	0.803100	0.472600	0.110800
C851	C85	0.279400	0.226700	0.469700
C861	C86	0.512600	0.768000	0.363900
C871	C87	0.922600	0.413900	0.509100
C881	C88	0.699300	0.515000	0.089800
C891	C89	0.717900	0.508800	0.235200
C901	C90	0.196200	0.261900	0.595500
C911	C91	0.289300	0.774900	0.379100
C921	C92	0.286000	0.458600	0.824400
C931	C93	0.070700	0.323400	0.194400
C941	C94	0.295800	0.226400	0.617200
C951	C95	0.971300	0.358100	0.171200
C961	C96	0.377000	0.190100	0.496400
N11	N1	0.525600	0.347400	0.232700
N21	N2	0.388100	0.050100	0.637200
N31	N3	0.610400	0.686800	0.067800
N41	N4	0.527800	0.890900	0.974600
N51	N5	0.474400	0.847400	0.732700
N61	N6	0.611900	0.550100	0.137200
N71	N7	0.389600	0.186800	0.567800
N81	N8	0.472200	0.390900	0.474600
O11	O1	0.535800	0.196700	0.710000
O21	O2	0.537700	0.039800	0.495200
O31	O3	0.689800	0.874500	0.840600
O41	O4	0.309500	0.862800	0.864400
O51	O5	0.717900	0.973100	0.484600
O61	O6	0.266500	0.988100	0.937300
O71	O7	0.740600	0.749000	0.769300
O81	O8	0.721600	0.263700	0.718800
O91	O9	0.464200	0.696700	0.210000
O101	O10	0.462300	0.539800	0.995200
O111	O11	0.310200	0.374500	0.340600
O121	O12	0.690500	0.362800	0.364400
O131	O13	0.282100	0.473100	0.984600
O141	O14	0.733500	0.488100	0.437300
O151	O15	0.259400	0.249000	0.269300
O161	O16	0.278400	0.763700	0.218800
