data_ZIMLUE_clean_PM
_symmetry_space_group_name_H-M	'P1'
_cell_length_a	30.778000
_cell_length_b	15.587000
_cell_length_c	22.103000
_cell_angle_alpha	90.000000
_cell_angle_beta	132.995000
_cell_angle_gamma	90.000000
_symmetry_Int_Tables_number 1

loop_
_symmetry_equiv_pos_as_xyz
'x,y,z'

loop_
_atom_site_label
_atom_site_type_symbol
_atom_site_fract_x
_atom_site_fract_y
_atom_site_fract_z
O11	O1	0.943700	0.151000	0.078500
O21	O2	0.865000	0.969200	0.882200
O31	O3	0.888600	0.886200	0.716300
O41	O4	0.723000	0.345100	0.795200
O51	O5	0.020700	0.222400	0.116700
O61	O6	0.823700	0.095000	0.871000
O71	O7	0.755100	0.234000	0.875400
O81	O8	0.853300	0.952000	0.602600
N11	N1	0.841200	0.996800	0.745600
N21	N2	0.866800	0.270500	0.964700
La11	La1	0.830930	0.127170	0.986950
La21	La2	0.890000	0.856950	0.829640
C11	C1	0.816300	0.052000	0.761000
C21	C2	0.774900	0.115200	0.705500
H11	H1	0.755900	0.150400	0.715400
C31	C3	0.765000	0.120000	0.633000
H21	H2	0.737500	0.161300	0.594200
C41	C4	0.787600	0.077000	0.616000
H31	H3	0.779400	0.086800	0.568000
C51	C5	0.829100	0.008000	0.674000
C61	C6	0.839700	0.036000	0.848800
C71	C7	0.859400	0.948000	0.663600
C81	C8	0.923700	0.285000	0.012000
C91	C9	0.942800	0.356000	0.000000
H41	H4	0.983300	0.363900	0.032000
C101	C10	0.904200	0.414000	0.942100
H51	H5	0.917200	0.463300	0.935100
C111	C11	0.844000	0.398000	0.893000
H61	H6	0.815700	0.437700	0.853600
C121	C12	0.825500	0.324000	0.902000
C131	C13	0.967200	0.214000	0.077000
C141	C14	0.760900	0.300000	0.852000
W11	W1	0.052890	0.635810	0.448890
W21	W2	0.924460	0.524000	0.290000
W31	W3	0.127650	0.524310	0.408490
W41	W4	0.923660	0.747500	0.290100
W51	W5	0.129930	0.747120	0.408530
O91	O9	0.968700	0.437000	0.296200
O101	O10	0.102400	0.718900	0.458900
O111	O11	0.073700	0.434000	0.355000
O121	O12	0.867300	0.510000	0.171000
O131	O13	0.102400	0.556000	0.462000
O141	O14	0.895600	0.640000	0.278100
O151	O15	0.994300	0.722000	0.398000
O161	O16	0.994700	0.552300	0.401200
O171	O17	0.962000	0.711000	0.234000
O181	O18	0.160000	0.640000	0.430200
O191	O19	0.966000	0.842000	0.294000
O201	O20	0.077000	0.840000	0.361000
O211	O21	0.865300	0.756000	0.172000
O221	O22	0.949000	0.640000	0.161000
O231	O23	0.039400	0.553000	0.272000
O241	O24	0.984100	0.635000	0.299000
O251	O25	0.443700	0.651000	0.078500
O261	O26	0.365000	0.469200	0.882200
O271	O27	0.388600	0.386200	0.716300
O281	O28	0.223000	0.845100	0.795200
O291	O29	0.520700	0.722400	0.116700
O301	O30	0.323700	0.595000	0.871000
O311	O31	0.255100	0.734000	0.875400
O321	O32	0.353300	0.452000	0.602600
N31	N3	0.341200	0.496800	0.745600
N41	N4	0.366800	0.770500	0.964700
La31	La3	0.330930	0.627170	0.986950
La41	La4	0.390000	0.356950	0.829640
C151	C15	0.316300	0.552000	0.761000
C161	C16	0.274900	0.615200	0.705500
H71	H7	0.255900	0.650400	0.715400
C171	C17	0.265000	0.620000	0.633000
H81	H8	0.237500	0.661300	0.594200
C181	C18	0.287600	0.577000	0.616000
H91	H9	0.279400	0.586800	0.568000
C191	C19	0.329100	0.508000	0.674000
C201	C20	0.339700	0.536000	0.848800
C211	C21	0.359400	0.448000	0.663600
C221	C22	0.423700	0.785000	0.012000
C231	C23	0.442800	0.856000	0.000000
H101	H10	0.483300	0.863900	0.032000
C241	C24	0.404200	0.914000	0.942100
H111	H11	0.417200	0.963300	0.935100
C251	C25	0.344000	0.898000	0.893000
H121	H12	0.315700	0.937700	0.853600
C261	C26	0.325500	0.824000	0.902000
C271	C27	0.467200	0.714000	0.077000
C281	C28	0.260900	0.800000	0.852000
W61	W6	0.552890	0.135810	0.448890
W71	W7	0.424460	0.024000	0.290000
W81	W8	0.627650	0.024310	0.408490
W91	W9	0.423660	0.247500	0.290100
W101	W10	0.629930	0.247120	0.408530
O331	O33	0.468700	0.937000	0.296200
O341	O34	0.602400	0.218900	0.458900
O351	O35	0.573700	0.934000	0.355000
O361	O36	0.367300	0.010000	0.171000
O371	O37	0.602400	0.056000	0.462000
O381	O38	0.395600	0.140000	0.278100
O391	O39	0.494300	0.222000	0.398000
O401	O40	0.494700	0.052300	0.401200
O411	O41	0.462000	0.211000	0.234000
O421	O42	0.660000	0.140000	0.430200
O431	O43	0.466000	0.342000	0.294000
O441	O44	0.577000	0.340000	0.361000
O451	O45	0.365300	0.256000	0.172000
O461	O46	0.449000	0.140000	0.161000
O471	O47	0.539400	0.053000	0.272000
O481	O48	0.484100	0.135000	0.299000
O491	O49	0.056300	0.151000	0.421500
O501	O50	0.135000	0.969200	0.617800
O511	O51	0.111400	0.886200	0.783700
O521	O52	0.277000	0.345100	0.704800
O531	O53	0.979300	0.222400	0.383300
O541	O54	0.176300	0.095000	0.629000
O551	O55	0.244900	0.234000	0.624600
O561	O56	0.146700	0.952000	0.897400
N51	N5	0.158800	0.996800	0.754400
N61	N6	0.133200	0.270500	0.535300
La51	La5	0.169070	0.127170	0.513050
La61	La6	0.110000	0.856950	0.670360
C291	C29	0.183700	0.052000	0.739000
C301	C30	0.225100	0.115200	0.794500
H131	H13	0.244100	0.150400	0.784600
C311	C31	0.235000	0.120000	0.867000
H141	H14	0.262500	0.161300	0.905800
C321	C32	0.212400	0.077000	0.884000
H151	H15	0.220600	0.086800	0.932000
C331	C33	0.170900	0.008000	0.826000
C341	C34	0.160300	0.036000	0.651200
C351	C35	0.140600	0.948000	0.836400
C361	C36	0.076300	0.285000	0.488000
C371	C37	0.057200	0.356000	0.500000
H161	H16	0.016700	0.363900	0.468000
C381	C38	0.095800	0.414000	0.557900
H171	H17	0.082800	0.463300	0.564900
C391	C39	0.156000	0.398000	0.607000
H181	H18	0.184300	0.437700	0.646400
C401	C40	0.174500	0.324000	0.598000
C411	C41	0.032800	0.214000	0.423000
C421	C42	0.239100	0.300000	0.648000
W111	W11	0.947110	0.635810	0.051110
W121	W12	0.075540	0.524000	0.210000
W131	W13	0.872350	0.524310	0.091510
W141	W14	0.076340	0.747500	0.209900
W151	W15	0.870070	0.747120	0.091470
O571	O57	0.031300	0.437000	0.203800
O581	O58	0.897600	0.718900	0.041100
O591	O59	0.926300	0.434000	0.145000
O601	O60	0.132700	0.510000	0.329000
O611	O61	0.897600	0.556000	0.038000
O621	O62	0.104400	0.640000	0.221900
O631	O63	0.005700	0.722000	0.102000
O641	O64	0.005300	0.552300	0.098800
O651	O65	0.038000	0.711000	0.266000
O661	O66	0.840000	0.640000	0.069800
O671	O67	0.034000	0.842000	0.206000
O681	O68	0.923000	0.840000	0.139000
O691	O69	0.134700	0.756000	0.328000
O701	O70	0.051000	0.640000	0.339000
O711	O71	0.960600	0.553000	0.228000
O721	O72	0.015900	0.635000	0.201000
O731	O73	0.556300	0.651000	0.421500
O741	O74	0.635000	0.469200	0.617800
O751	O75	0.611400	0.386200	0.783700
O761	O76	0.777000	0.845100	0.704800
O771	O77	0.479300	0.722400	0.383300
O781	O78	0.676300	0.595000	0.629000
O791	O79	0.744900	0.734000	0.624600
O801	O80	0.646700	0.452000	0.897400
N71	N7	0.658800	0.496800	0.754400
N81	N8	0.633200	0.770500	0.535300
La71	La7	0.669070	0.627170	0.513050
La81	La8	0.610000	0.356950	0.670360
C431	C43	0.683700	0.552000	0.739000
C441	C44	0.725100	0.615200	0.794500
H191	H19	0.744100	0.650400	0.784600
C451	C45	0.735000	0.620000	0.867000
H201	H20	0.762500	0.661300	0.905800
C461	C46	0.712400	0.577000	0.884000
H211	H21	0.720600	0.586800	0.932000
C471	C47	0.670900	0.508000	0.826000
C481	C48	0.660300	0.536000	0.651200
C491	C49	0.640600	0.448000	0.836400
C501	C50	0.576300	0.785000	0.488000
C511	C51	0.557200	0.856000	0.500000
H221	H22	0.516700	0.863900	0.468000
C521	C52	0.595800	0.914000	0.557900
H231	H23	0.582800	0.963300	0.564900
C531	C53	0.656000	0.898000	0.607000
H241	H24	0.684300	0.937700	0.646400
C541	C54	0.674500	0.824000	0.598000
C551	C55	0.532800	0.714000	0.423000
C561	C56	0.739100	0.800000	0.648000
W161	W16	0.447110	0.135810	0.051110
W171	W17	0.575540	0.024000	0.210000
W181	W18	0.372350	0.024310	0.091510
W191	W19	0.576340	0.247500	0.209900
W201	W20	0.370070	0.247120	0.091470
O811	O81	0.531300	0.937000	0.203800
O821	O82	0.397600	0.218900	0.041100
O831	O83	0.426300	0.934000	0.145000
O841	O84	0.632700	0.010000	0.329000
O851	O85	0.397600	0.056000	0.038000
O861	O86	0.604400	0.140000	0.221900
O871	O87	0.505700	0.222000	0.102000
O881	O88	0.505300	0.052300	0.098800
O891	O89	0.538000	0.211000	0.266000
O901	O90	0.340000	0.140000	0.069800
O911	O91	0.534000	0.342000	0.206000
O921	O92	0.423000	0.340000	0.139000
O931	O93	0.634700	0.256000	0.328000
O941	O94	0.551000	0.140000	0.339000
O951	O95	0.460600	0.053000	0.228000
O961	O96	0.515900	0.135000	0.201000
O971	O97	0.056300	0.849000	0.921500
O981	O98	0.135000	0.030800	0.117800
O991	O99	0.111400	0.113800	0.283700
O1001	O100	0.277000	0.654900	0.204800
O1011	O101	0.979300	0.777600	0.883300
O1021	O102	0.176300	0.905000	0.129000
O1031	O103	0.244900	0.766000	0.124600
O1041	O104	0.146700	0.048000	0.397400
N91	N9	0.158800	0.003200	0.254400
N101	N10	0.133200	0.729500	0.035300
La91	La9	0.169070	0.872830	0.013050
La101	La10	0.110000	0.143050	0.170360
C571	C57	0.183700	0.948000	0.239000
C581	C58	0.225100	0.884800	0.294500
H251	H25	0.244100	0.849600	0.284600
C591	C59	0.235000	0.880000	0.367000
H261	H26	0.262500	0.838700	0.405800
C601	C60	0.212400	0.923000	0.384000
H271	H27	0.220600	0.913200	0.432000
C611	C61	0.170900	0.992000	0.326000
C621	C62	0.160300	0.964000	0.151200
C631	C63	0.140600	0.052000	0.336400
C641	C64	0.076300	0.715000	0.988000
C651	C65	0.057200	0.644000	0.000000
H281	H28	0.016700	0.636100	0.968000
C661	C66	0.095800	0.586000	0.057900
H291	H29	0.082800	0.536700	0.064900
C671	C67	0.156000	0.602000	0.107000
H301	H30	0.184300	0.562300	0.146400
C681	C68	0.174500	0.676000	0.098000
C691	C69	0.032800	0.786000	0.923000
C701	C70	0.239100	0.700000	0.148000
W211	W21	0.947110	0.364190	0.551110
W221	W22	0.075540	0.476000	0.710000
W231	W23	0.872350	0.475690	0.591510
W241	W24	0.076340	0.252500	0.709900
W251	W25	0.870070	0.252880	0.591470
O1051	O105	0.031300	0.563000	0.703800
O1061	O106	0.897600	0.281100	0.541100
O1071	O107	0.926300	0.566000	0.645000
O1081	O108	0.132700	0.490000	0.829000
O1091	O109	0.897600	0.444000	0.538000
O1101	O110	0.104400	0.360000	0.721900
O1111	O111	0.005700	0.278000	0.602000
O1121	O112	0.005300	0.447700	0.598800
O1131	O113	0.038000	0.289000	0.766000
O1141	O114	0.840000	0.360000	0.569800
O1151	O115	0.034000	0.158000	0.706000
O1161	O116	0.923000	0.160000	0.639000
O1171	O117	0.134700	0.244000	0.828000
O1181	O118	0.051000	0.360000	0.839000
O1191	O119	0.960600	0.447000	0.728000
O1201	O120	0.015900	0.365000	0.701000
O1211	O121	0.556300	0.349000	0.921500
O1221	O122	0.635000	0.530800	0.117800
O1231	O123	0.611400	0.613800	0.283700
O1241	O124	0.777000	0.154900	0.204800
O1251	O125	0.479300	0.277600	0.883300
O1261	O126	0.676300	0.405000	0.129000
O1271	O127	0.744900	0.266000	0.124600
O1281	O128	0.646700	0.548000	0.397400
N111	N11	0.658800	0.503200	0.254400
N121	N12	0.633200	0.229500	0.035300
La111	La11	0.669070	0.372830	0.013050
La121	La12	0.610000	0.643050	0.170360
C711	C71	0.683700	0.448000	0.239000
C721	C72	0.725100	0.384800	0.294500
H311	H31	0.744100	0.349600	0.284600
C731	C73	0.735000	0.380000	0.367000
H321	H32	0.762500	0.338700	0.405800
C741	C74	0.712400	0.423000	0.384000
H331	H33	0.720600	0.413200	0.432000
C751	C75	0.670900	0.492000	0.326000
C761	C76	0.660300	0.464000	0.151200
C771	C77	0.640600	0.552000	0.336400
C781	C78	0.576300	0.215000	0.988000
C791	C79	0.557200	0.144000	0.000000
H341	H34	0.516700	0.136100	0.968000
C801	C80	0.595800	0.086000	0.057900
H351	H35	0.582800	0.036700	0.064900
C811	C81	0.656000	0.102000	0.107000
H361	H36	0.684300	0.062300	0.146400
C821	C82	0.674500	0.176000	0.098000
C831	C83	0.532800	0.286000	0.923000
C841	C84	0.739100	0.200000	0.148000
W261	W26	0.447110	0.864190	0.551110
W271	W27	0.575540	0.976000	0.710000
W281	W28	0.372350	0.975690	0.591510
W291	W29	0.576340	0.752500	0.709900
W301	W30	0.370070	0.752880	0.591470
O1291	O129	0.531300	0.063000	0.703800
O1301	O130	0.397600	0.781100	0.541100
O1311	O131	0.426300	0.066000	0.645000
O1321	O132	0.632700	0.990000	0.829000
O1331	O133	0.397600	0.944000	0.538000
O1341	O134	0.604400	0.860000	0.721900
O1351	O135	0.505700	0.778000	0.602000
O1361	O136	0.505300	0.947700	0.598800
O1371	O137	0.538000	0.789000	0.766000
O1381	O138	0.340000	0.860000	0.569800
O1391	O139	0.534000	0.658000	0.706000
O1401	O140	0.423000	0.660000	0.639000
O1411	O141	0.634700	0.744000	0.828000
O1421	O142	0.551000	0.860000	0.839000
O1431	O143	0.460600	0.947000	0.728000
O1441	O144	0.515900	0.865000	0.701000
O1451	O145	0.943700	0.849000	0.578500
O1461	O146	0.865000	0.030800	0.382200
O1471	O147	0.888600	0.113800	0.216300
O1481	O148	0.723000	0.654900	0.295200
O1491	O149	0.020700	0.777600	0.616700
O1501	O150	0.823700	0.905000	0.371000
O1511	O151	0.755100	0.766000	0.375400
O1521	O152	0.853300	0.048000	0.102600
N131	N13	0.841200	0.003200	0.245600
N141	N14	0.866800	0.729500	0.464700
La131	La13	0.830930	0.872830	0.486950
La141	La14	0.890000	0.143050	0.329640
C851	C85	0.816300	0.948000	0.261000
C861	C86	0.774900	0.884800	0.205500
H371	H37	0.755900	0.849600	0.215400
C871	C87	0.765000	0.880000	0.133000
H381	H38	0.737500	0.838700	0.094200
C881	C88	0.787600	0.923000	0.116000
H391	H39	0.779400	0.913200	0.068000
C891	C89	0.829100	0.992000	0.174000
C901	C90	0.839700	0.964000	0.348800
C911	C91	0.859400	0.052000	0.163600
C921	C92	0.923700	0.715000	0.512000
C931	C93	0.942800	0.644000	0.500000
H401	H40	0.983300	0.636100	0.532000
C941	C94	0.904200	0.586000	0.442100
H411	H41	0.917200	0.536700	0.435100
C951	C95	0.844000	0.602000	0.393000
H421	H42	0.815700	0.562300	0.353600
C961	C96	0.825500	0.676000	0.402000
C971	C97	0.967200	0.786000	0.577000
C981	C98	0.760900	0.700000	0.352000
W311	W31	0.052890	0.364190	0.948890
W321	W32	0.924460	0.476000	0.790000
W331	W33	0.127650	0.475690	0.908490
W341	W34	0.923660	0.252500	0.790100
W351	W35	0.129930	0.252880	0.908530
O1531	O153	0.968700	0.563000	0.796200
O1541	O154	0.102400	0.281100	0.958900
O1551	O155	0.073700	0.566000	0.855000
O1561	O156	0.867300	0.490000	0.671000
O1571	O157	0.102400	0.444000	0.962000
O1581	O158	0.895600	0.360000	0.778100
O1591	O159	0.994300	0.278000	0.898000
O1601	O160	0.994700	0.447700	0.901200
O1611	O161	0.962000	0.289000	0.734000
O1621	O162	0.160000	0.360000	0.930200
O1631	O163	0.966000	0.158000	0.794000
O1641	O164	0.077000	0.160000	0.861000
O1651	O165	0.865300	0.244000	0.672000
O1661	O166	0.949000	0.360000	0.661000
O1671	O167	0.039400	0.447000	0.772000
O1681	O168	0.984100	0.365000	0.799000
O1691	O169	0.443700	0.349000	0.578500
O1701	O170	0.365000	0.530800	0.382200
O1711	O171	0.388600	0.613800	0.216300
O1721	O172	0.223000	0.154900	0.295200
O1731	O173	0.520700	0.277600	0.616700
O1741	O174	0.323700	0.405000	0.371000
O1751	O175	0.255100	0.266000	0.375400
O1761	O176	0.353300	0.548000	0.102600
N151	N15	0.341200	0.503200	0.245600
N161	N16	0.366800	0.229500	0.464700
La151	La15	0.330930	0.372830	0.486950
La161	La16	0.390000	0.643050	0.329640
C991	C99	0.316300	0.448000	0.261000
C1001	C100	0.274900	0.384800	0.205500
H431	H43	0.255900	0.349600	0.215400
C1011	C101	0.265000	0.380000	0.133000
H441	H44	0.237500	0.338700	0.094200
C1021	C102	0.287600	0.423000	0.116000
H451	H45	0.279400	0.413200	0.068000
C1031	C103	0.329100	0.492000	0.174000
C1041	C104	0.339700	0.464000	0.348800
C1051	C105	0.359400	0.552000	0.163600
C1061	C106	0.423700	0.215000	0.512000
C1071	C107	0.442800	0.144000	0.500000
H461	H46	0.483300	0.136100	0.532000
C1081	C108	0.404200	0.086000	0.442100
H471	H47	0.417200	0.036700	0.435100
C1091	C109	0.344000	0.102000	0.393000
H481	H48	0.315700	0.062300	0.353600
C1101	C110	0.325500	0.176000	0.402000
C1111	C111	0.467200	0.286000	0.577000
C1121	C112	0.260900	0.200000	0.352000
W361	W36	0.552890	0.864190	0.948890
W371	W37	0.424460	0.976000	0.790000
W381	W38	0.627650	0.975690	0.908490
W391	W39	0.423660	0.752500	0.790100
W401	W40	0.629930	0.752880	0.908530
O1771	O177	0.468700	0.063000	0.796200
O1781	O178	0.602400	0.781100	0.958900
O1791	O179	0.573700	0.066000	0.855000
O1801	O180	0.367300	0.990000	0.671000
O1811	O181	0.602400	0.944000	0.962000
O1821	O182	0.395600	0.860000	0.778100
O1831	O183	0.494300	0.778000	0.898000
O1841	O184	0.494700	0.947700	0.901200
O1851	O185	0.462000	0.789000	0.734000
O1861	O186	0.660000	0.860000	0.930200
O1871	O187	0.466000	0.658000	0.794000
O1881	O188	0.577000	0.660000	0.861000
O1891	O189	0.365300	0.744000	0.672000
O1901	O190	0.449000	0.860000	0.661000
O1911	O191	0.539400	0.947000	0.772000
O1921	O192	0.484100	0.865000	0.799000
K11	K1	0.000000	0.136400	0.250000
W411	W41	0.000000	0.411120	0.250000
W421	W42	0.000000	0.858260	0.250000
B11	B1	0.000000	0.632000	0.250000
O1931	O193	0.000000	0.301000	0.250000
O1941	O194	0.000000	0.960000	0.250000
K21	K2	0.500000	0.636400	0.250000
W431	W43	0.500000	0.911120	0.250000
W441	W44	0.500000	0.358260	0.250000
B21	B2	0.500000	0.132000	0.250000
O1951	O195	0.500000	0.801000	0.250000
O1961	O196	0.500000	0.460000	0.250000
K31	K3	0.000000	0.863600	0.750000
W451	W45	0.000000	0.588880	0.750000
W461	W46	0.000000	0.141740	0.750000
B31	B3	0.000000	0.368000	0.750000
O1971	O197	0.000000	0.699000	0.750000
O1981	O198	0.000000	0.040000	0.750000
K41	K4	0.500000	0.363600	0.750000
W471	W47	0.500000	0.088880	0.750000
W481	W48	0.500000	0.641740	0.750000
B41	B4	0.500000	0.868000	0.750000
O1991	O199	0.500000	0.199000	0.750000
O2001	O200	0.500000	0.540000	0.750000
