data_ZIMLAK_clean_PM
_symmetry_space_group_name_H-M	'P1'
_cell_length_a	21.781000
_cell_length_b	21.781000
_cell_length_c	16.101000
_cell_angle_alpha	90.000000
_cell_angle_beta	90.000000
_cell_angle_gamma	90.000000
_symmetry_Int_Tables_number 1

loop_
_symmetry_equiv_pos_as_xyz
'x,y,z'

loop_
_atom_site_label
_atom_site_type_symbol
_atom_site_fract_x
_atom_site_fract_y
_atom_site_fract_z
Er11	Er1	0.883350	0.416200	0.123960
O11	O1	0.777000	0.426800	0.152700
O21	O2	0.745100	0.389100	0.274500
O31	O3	0.475700	0.414000	0.302600
O41	O4	0.559300	0.373800	0.361600
N11	N1	0.631500	0.418500	0.247800
C11	C1	0.671600	0.436700	0.190100
C21	C2	0.653900	0.470000	0.122000
H11	H1	0.682400	0.481200	0.081800
C31	C3	0.592500	0.486900	0.114100
H21	H2	0.579500	0.510800	0.069600
C41	C4	0.551500	0.467400	0.173700
H31	H3	0.510200	0.477800	0.169800
C51	C5	0.572400	0.431900	0.239600
C61	C6	0.737100	0.416200	0.205700
C71	C7	0.532200	0.405200	0.305800
Er21	Er2	0.383350	0.916200	0.623960
O51	O5	0.277000	0.926800	0.652700
O61	O6	0.245100	0.889100	0.774500
O71	O7	0.975700	0.914000	0.802600
O81	O8	0.059300	0.873800	0.861600
N21	N2	0.131500	0.918500	0.747800
C81	C8	0.171600	0.936700	0.690100
C91	C9	0.153900	0.970000	0.622000
H41	H4	0.182400	0.981200	0.581800
C101	C10	0.092500	0.986900	0.614100
H51	H5	0.079500	0.010800	0.569600
C111	C11	0.051500	0.967400	0.673700
H61	H6	0.010200	0.977800	0.669800
C121	C12	0.072400	0.931900	0.739600
C131	C13	0.237100	0.916200	0.705700
C141	C14	0.032200	0.905200	0.805800
Er31	Er3	0.616650	0.583800	0.623960
O91	O9	0.723000	0.573200	0.652700
O101	O10	0.754900	0.610900	0.774500
O111	O11	0.024300	0.586000	0.802600
O121	O12	0.940700	0.626200	0.861600
N31	N3	0.868500	0.581500	0.747800
C151	C15	0.828400	0.563300	0.690100
C161	C16	0.846100	0.530000	0.622000
H71	H7	0.817600	0.518800	0.581800
C171	C17	0.907500	0.513100	0.614100
H81	H8	0.920500	0.489200	0.569600
C181	C18	0.948500	0.532600	0.673700
H91	H9	0.989800	0.522200	0.669800
C191	C19	0.927600	0.568100	0.739600
C201	C20	0.762900	0.583800	0.705700
C211	C21	0.967800	0.594800	0.805800
Er41	Er4	0.116650	0.083800	0.123960
O131	O13	0.223000	0.073200	0.152700
O141	O14	0.254900	0.110900	0.274500
O151	O15	0.524300	0.086000	0.302600
O161	O16	0.440700	0.126200	0.361600
N41	N4	0.368500	0.081500	0.247800
C221	C22	0.328400	0.063300	0.190100
C231	C23	0.346100	0.030000	0.122000
H101	H10	0.317600	0.018800	0.081800
C241	C24	0.407500	0.013100	0.114100
H111	H11	0.420500	0.989200	0.069600
C251	C25	0.448500	0.032600	0.173700
H121	H12	0.489800	0.022200	0.169800
C261	C26	0.427600	0.068100	0.239600
C271	C27	0.262900	0.083800	0.205700
C281	C28	0.467800	0.094800	0.305800
Er51	Er5	0.333800	0.133350	0.373960
O171	O17	0.323200	0.027000	0.402700
O181	O18	0.360900	0.995100	0.524500
O191	O19	0.336000	0.725700	0.552600
O201	O20	0.376200	0.809300	0.611600
N51	N5	0.331500	0.881500	0.497800
C291	C29	0.313300	0.921600	0.440100
C301	C30	0.280000	0.903900	0.372000
H131	H13	0.268800	0.932400	0.331800
C311	C31	0.263100	0.842500	0.364100
H141	H14	0.239200	0.829500	0.319600
C321	C32	0.282600	0.801500	0.423700
H151	H15	0.272200	0.760200	0.419800
C331	C33	0.318100	0.822400	0.489600
C341	C34	0.333800	0.987100	0.455700
C351	C35	0.344800	0.782200	0.555800
Er61	Er6	0.833800	0.633350	0.873960
O211	O21	0.823200	0.527000	0.902700
O221	O22	0.860900	0.495100	0.024500
O231	O23	0.836000	0.225700	0.052600
O241	O24	0.876200	0.309300	0.111600
N61	N6	0.831500	0.381500	0.997800
C361	C36	0.813300	0.421600	0.940100
C371	C37	0.780000	0.403900	0.872000
H161	H16	0.768800	0.432400	0.831800
C381	C38	0.763100	0.342500	0.864100
H171	H17	0.739200	0.329500	0.819600
C391	C39	0.782600	0.301500	0.923700
H181	H18	0.772200	0.260200	0.919800
C401	C40	0.818100	0.322400	0.989600
C411	C41	0.833800	0.487100	0.955700
C421	C42	0.844800	0.282200	0.055800
Er71	Er7	0.166200	0.866650	0.873960
O251	O25	0.176800	0.973000	0.902700
O261	O26	0.139100	0.004900	0.024500
O271	O27	0.164000	0.274300	0.052600
O281	O28	0.123800	0.190700	0.111600
N71	N7	0.168500	0.118500	0.997800
C431	C43	0.186700	0.078400	0.940100
C441	C44	0.220000	0.096100	0.872000
H191	H19	0.231200	0.067600	0.831800
C451	C45	0.236900	0.157500	0.864100
H201	H20	0.260800	0.170500	0.819600
C461	C46	0.217400	0.198500	0.923700
H211	H21	0.227800	0.239800	0.919800
C471	C47	0.181900	0.177600	0.989600
C481	C48	0.166200	0.012900	0.955700
C491	C49	0.155200	0.217800	0.055800
Er81	Er8	0.666200	0.366650	0.373960
O291	O29	0.676800	0.473000	0.402700
O301	O30	0.639100	0.504900	0.524500
O311	O31	0.664000	0.774300	0.552600
O321	O32	0.623800	0.690700	0.611600
N81	N8	0.668500	0.618500	0.497800
C501	C50	0.686700	0.578400	0.440100
C511	C51	0.720000	0.596100	0.372000
H221	H22	0.731200	0.567600	0.331800
C521	C52	0.736900	0.657500	0.364100
H231	H23	0.760800	0.670500	0.319600
C531	C53	0.717400	0.698500	0.423700
H241	H24	0.727800	0.739800	0.419800
C541	C54	0.681900	0.677600	0.489600
C551	C55	0.666200	0.512900	0.455700
C561	C56	0.655200	0.717800	0.555800
Er91	Er9	0.116650	0.583800	0.876040
O331	O33	0.223000	0.573200	0.847300
O341	O34	0.254900	0.610900	0.725500
O351	O35	0.524300	0.586000	0.697400
O361	O36	0.440700	0.626200	0.638400
N91	N9	0.368500	0.581500	0.752200
C571	C57	0.328400	0.563300	0.809900
C581	C58	0.346100	0.530000	0.878000
H251	H25	0.317600	0.518800	0.918200
C591	C59	0.407500	0.513100	0.885900
H261	H26	0.420500	0.489200	0.930400
C601	C60	0.448500	0.532600	0.826300
H271	H27	0.489800	0.522200	0.830200
C611	C61	0.427600	0.568100	0.760400
C621	C62	0.262900	0.583800	0.794300
C631	C63	0.467800	0.594800	0.694200
Er101	Er10	0.616650	0.083800	0.376040
O371	O37	0.723000	0.073200	0.347300
O381	O38	0.754900	0.110900	0.225500
O391	O39	0.024300	0.086000	0.197400
O401	O40	0.940700	0.126200	0.138400
N101	N10	0.868500	0.081500	0.252200
C641	C64	0.828400	0.063300	0.309900
C651	C65	0.846100	0.030000	0.378000
H281	H28	0.817600	0.018800	0.418200
C661	C66	0.907500	0.013100	0.385900
H291	H29	0.920500	0.989200	0.430400
C671	C67	0.948500	0.032600	0.326300
H301	H30	0.989800	0.022200	0.330200
C681	C68	0.927600	0.068100	0.260400
C691	C69	0.762900	0.083800	0.294300
C701	C70	0.967800	0.094800	0.194200
Er111	Er11	0.383350	0.416200	0.376040
O411	O41	0.277000	0.426800	0.347300
O421	O42	0.245100	0.389100	0.225500
O431	O43	0.975700	0.414000	0.197400
O441	O44	0.059300	0.373800	0.138400
N111	N11	0.131500	0.418500	0.252200
C711	C71	0.171600	0.436700	0.309900
C721	C72	0.153900	0.470000	0.378000
H311	H31	0.182400	0.481200	0.418200
C731	C73	0.092500	0.486900	0.385900
H321	H32	0.079500	0.510800	0.430400
C741	C74	0.051500	0.467400	0.326300
H331	H33	0.010200	0.477800	0.330200
C751	C75	0.072400	0.431900	0.260400
C761	C76	0.237100	0.416200	0.294300
C771	C77	0.032200	0.405200	0.194200
Er121	Er12	0.883350	0.916200	0.876040
O451	O45	0.777000	0.926800	0.847300
O461	O46	0.745100	0.889100	0.725500
O471	O47	0.475700	0.914000	0.697400
O481	O48	0.559300	0.873800	0.638400
N121	N12	0.631500	0.918500	0.752200
C781	C78	0.671600	0.936700	0.809900
C791	C79	0.653900	0.970000	0.878000
H341	H34	0.682400	0.981200	0.918200
C801	C80	0.592500	0.986900	0.885900
H351	H35	0.579500	0.010800	0.930400
C811	C81	0.551500	0.967400	0.826300
H361	H36	0.510200	0.977800	0.830200
C821	C82	0.572400	0.931900	0.760400
C831	C83	0.737100	0.916200	0.794300
C841	C84	0.532200	0.905200	0.694200
Er131	Er13	0.666200	0.866650	0.626040
O491	O49	0.676800	0.973000	0.597300
O501	O50	0.639100	0.004900	0.475500
O511	O51	0.664000	0.274300	0.447400
O521	O52	0.623800	0.190700	0.388400
N131	N13	0.668500	0.118500	0.502200
C851	C85	0.686700	0.078400	0.559900
C861	C86	0.720000	0.096100	0.628000
H371	H37	0.731200	0.067600	0.668200
C871	C87	0.736900	0.157500	0.635900
H381	H38	0.760800	0.170500	0.680400
C881	C88	0.717400	0.198500	0.576300
H391	H39	0.727800	0.239800	0.580200
C891	C89	0.681900	0.177600	0.510400
C901	C90	0.666200	0.012900	0.544300
C911	C91	0.655200	0.217800	0.444200
Er141	Er14	0.166200	0.366650	0.126040
O531	O53	0.176800	0.473000	0.097300
O541	O54	0.139100	0.504900	0.975500
O551	O55	0.164000	0.774300	0.947400
O561	O56	0.123800	0.690700	0.888400
N141	N14	0.168500	0.618500	0.002200
C921	C92	0.186700	0.578400	0.059900
C931	C93	0.220000	0.596100	0.128000
H401	H40	0.231200	0.567600	0.168200
C941	C94	0.236900	0.657500	0.135900
H411	H41	0.260800	0.670500	0.180400
C951	C95	0.217400	0.698500	0.076300
H421	H42	0.227800	0.739800	0.080200
C961	C96	0.181900	0.677600	0.010400
C971	C97	0.166200	0.512900	0.044300
C981	C98	0.155200	0.717800	0.944200
Er151	Er15	0.833800	0.133350	0.126040
O571	O57	0.823200	0.027000	0.097300
O581	O58	0.860900	0.995100	0.975500
O591	O59	0.836000	0.725700	0.947400
O601	O60	0.876200	0.809300	0.888400
N151	N15	0.831500	0.881500	0.002200
C991	C99	0.813300	0.921600	0.059900
C1001	C100	0.780000	0.903900	0.128000
H431	H43	0.768800	0.932400	0.168200
C1011	C101	0.763100	0.842500	0.135900
H441	H44	0.739200	0.829500	0.180400
C1021	C102	0.782600	0.801500	0.076300
H451	H45	0.772200	0.760200	0.080200
C1031	C103	0.818100	0.822400	0.010400
C1041	C104	0.833800	0.987100	0.044300
C1051	C105	0.844800	0.782200	0.944200
Er161	Er16	0.333800	0.633350	0.626040
O611	O61	0.323200	0.527000	0.597300
O621	O62	0.360900	0.495100	0.475500
O631	O63	0.336000	0.225700	0.447400
O641	O64	0.376200	0.309300	0.388400
N161	N16	0.331500	0.381500	0.502200
C1061	C106	0.313300	0.421600	0.559900
C1071	C107	0.280000	0.403900	0.628000
H461	H46	0.268800	0.432400	0.668200
C1081	C108	0.263100	0.342500	0.635900
H471	H47	0.239200	0.329500	0.680400
C1091	C109	0.282600	0.301500	0.576300
H481	H48	0.272200	0.260200	0.580200
C1101	C110	0.318100	0.322400	0.510400
C1111	C111	0.333800	0.487100	0.544300
C1121	C112	0.344800	0.282200	0.444200
