data_ZINDAD_clean_PM
_symmetry_space_group_name_H-M	'P1'
_cell_length_a	26.855000
_cell_length_b	26.855000
_cell_length_c	26.907500
_cell_angle_alpha	60.064500
_cell_angle_beta	60.064500
_cell_angle_gamma	90.000000
_symmetry_Int_Tables_number 1

loop_
_symmetry_equiv_pos_as_xyz
'x,y,z'

loop_
_atom_site_label
_atom_site_type_symbol
_atom_site_fract_x
_atom_site_fract_y
_atom_site_fract_z
Zn11	Zn1	0.184400	0.236260	0.289390
Zn21	Zn2	0.063440	0.135690	0.401820
Zn31	Zn3	0.526210	0.474360	0.289380
Zn41	Zn4	0.534740	0.462490	0.401820
Zn51	Zn5	0.236260	0.526200	0.289390
Zn61	Zn6	0.135690	0.534740	0.401820
Zn71	Zn7	0.474360	0.184410	0.289380
Zn81	Zn8	0.462490	0.063440	0.401820
Zn91	Zn9	0.815600	0.763740	0.710610
Zn101	Zn10	0.936560	0.864310	0.598180
Zn111	Zn11	0.473790	0.525640	0.710620
Zn121	Zn12	0.465260	0.537510	0.598180
Zn131	Zn13	0.763730	0.473790	0.710620
Zn141	Zn14	0.864310	0.465260	0.598180
Zn151	Zn15	0.525640	0.815590	0.710620
Zn161	Zn16	0.537510	0.936560	0.598180
Zn171	Zn17	0.209600	0.549650	0.000000
Zn181	Zn18	0.100090	0.567280	0.000000
Zn191	Zn19	0.790400	0.450350	0.000000
Zn201	Zn20	0.899910	0.432720	0.000000
Zn211	Zn21	0.549650	0.790400	0.000000
Zn221	Zn22	0.567280	0.899910	0.000000
Zn231	Zn23	0.450350	0.209600	0.000000
Zn241	Zn24	0.432720	0.100090	0.000000
H11	H1	0.267200	0.904900	0.672400
H21	H2	0.107600	0.929400	0.607000
H31	H3	0.083100	0.708400	0.804600
H41	H4	0.188500	0.754700	0.820000
H51	H5	0.329500	0.733100	0.834800
H61	H6	0.350400	0.889200	0.674000
H71	H7	0.261400	0.986200	0.534000
H81	H8	0.288200	0.146400	0.372200
H91	H9	0.120800	0.023400	0.524400
H101	H10	0.020700	0.788600	0.712600
H111	H11	0.876200	0.640500	0.826000
H121	H12	0.004900	0.627200	0.863200
H131	H13	0.060400	0.422700	0.672400
H141	H14	0.285400	0.463600	0.607000
H151	H15	0.112300	0.487000	0.804600
H161	H16	0.991500	0.425300	0.820000
H171	H17	0.835700	0.432100	0.834800
H181	H18	0.975600	0.436800	0.674000
H191	H19	0.204600	0.479800	0.534000
H201	H20	0.339600	0.481400	0.372200
H211	H21	0.354800	0.452200	0.524400
H221	H22	0.266700	0.498800	0.712600
H231	H23	0.297800	0.533500	0.826000
H241	H24	0.131900	0.509600	0.863200
H251	H25	0.904900	0.060400	0.672400
H261	H26	0.929400	0.285400	0.607000
H271	H27	0.708400	0.112300	0.804600
H281	H28	0.754700	0.991500	0.820000
H291	H29	0.733100	0.835700	0.834800
H301	H30	0.889200	0.975600	0.674000
H311	H31	0.986200	0.204600	0.534000
H321	H32	0.146400	0.339600	0.372200
H331	H33	0.023400	0.354800	0.524400
H341	H34	0.788600	0.266700	0.712600
H351	H35	0.640500	0.297800	0.826000
H361	H36	0.627200	0.131900	0.863200
H371	H37	0.422700	0.267200	0.672400
H381	H38	0.463600	0.107600	0.607000
H391	H39	0.487000	0.083100	0.804600
H401	H40	0.425300	0.188500	0.820000
H411	H41	0.432100	0.329500	0.834800
H421	H42	0.436800	0.350400	0.674000
H431	H43	0.479800	0.261400	0.534000
H441	H44	0.481400	0.288200	0.372200
H451	H45	0.452200	0.120800	0.524400
H461	H46	0.498800	0.020700	0.712600
H471	H47	0.533500	0.876200	0.826000
H481	H48	0.509600	0.004900	0.863200
H491	H49	0.732800	0.095100	0.327600
H501	H50	0.892400	0.070600	0.393000
H511	H51	0.916900	0.291600	0.195400
H521	H52	0.811500	0.245300	0.180000
H531	H53	0.670500	0.266900	0.165200
H541	H54	0.649600	0.110800	0.326000
H551	H55	0.738600	0.013800	0.466000
H561	H56	0.711800	0.853600	0.627800
H571	H57	0.879200	0.976600	0.475600
H581	H58	0.979300	0.211400	0.287400
H591	H59	0.123800	0.359500	0.174000
H601	H60	0.995100	0.372800	0.136800
H611	H61	0.939600	0.577300	0.327600
H621	H62	0.714600	0.536400	0.393000
H631	H63	0.887700	0.513000	0.195400
H641	H64	0.008500	0.574700	0.180000
H651	H65	0.164300	0.567900	0.165200
H661	H66	0.024400	0.563200	0.326000
H671	H67	0.795400	0.520200	0.466000
H681	H68	0.660400	0.518600	0.627800
H691	H69	0.645200	0.547800	0.475600
H701	H70	0.733300	0.501200	0.287400
H711	H71	0.702200	0.466500	0.174000
H721	H72	0.868100	0.490400	0.136800
H731	H73	0.095100	0.939600	0.327600
H741	H74	0.070600	0.714600	0.393000
H751	H75	0.291600	0.887700	0.195400
H761	H76	0.245300	0.008500	0.180000
H771	H77	0.266900	0.164300	0.165200
H781	H78	0.110800	0.024400	0.326000
H791	H79	0.013800	0.795400	0.466000
H801	H80	0.853600	0.660400	0.627800
H811	H81	0.976600	0.645200	0.475600
H821	H82	0.211400	0.733300	0.287400
H831	H83	0.359500	0.702200	0.174000
H841	H84	0.372800	0.868100	0.136800
H851	H85	0.577300	0.732800	0.327600
H861	H86	0.536400	0.892400	0.393000
H871	H87	0.513000	0.916900	0.195400
H881	H88	0.574700	0.811500	0.180000
H891	H89	0.567900	0.670500	0.165200
H901	H90	0.563200	0.649600	0.326000
H911	H91	0.520200	0.738600	0.466000
H921	H92	0.518600	0.711800	0.627800
H931	H93	0.547800	0.879200	0.475600
H941	H94	0.501200	0.979300	0.287400
H951	H95	0.466500	0.123800	0.174000
H961	H96	0.490400	0.995100	0.136800
C11	C1	0.197750	0.854040	0.699040
C21	C2	0.148330	0.892370	0.649040
C31	C3	0.113350	0.793230	0.734800
C41	C4	0.265230	0.827560	0.740760
C51	C5	0.229030	0.769900	0.802200
C61	C6	0.253020	0.735050	0.836920
C71	C7	0.313510	0.757040	0.811180
C81	C8	0.350240	0.815550	0.749300
C91	C9	0.326150	0.850320	0.714820
C101	C10	0.215310	0.671260	0.901200
C111	C11	0.416370	0.838400	0.718860
C121	C12	0.183730	0.995410	0.540760
C131	C13	0.245890	0.012490	0.511500
C141	C14	0.284680	0.069580	0.448080
C151	C15	0.262020	0.108670	0.414380
C161	C16	0.200760	0.091910	0.443080
C171	C17	0.162040	0.034920	0.505820
C181	C18	0.352240	0.086510	0.414860
C191	C19	0.175410	0.131120	0.405440
C201	C20	0.021020	0.711950	0.786940
C211	C21	0.999340	0.747320	0.748020
C221	C22	0.945230	0.719720	0.763080
C231	C23	0.912910	0.658210	0.815440
C241	C24	0.936650	0.623300	0.852020
C251	C25	0.989860	0.650580	0.837940
C261	C26	0.921720	0.756500	0.720980
C271	C27	0.903770	0.556490	0.905480
C281	C28	0.103210	0.446920	0.699040
C291	C29	0.202630	0.458590	0.649040
C301	C30	0.151850	0.471970	0.734800
C311	C31	0.994010	0.431680	0.740760
C321	C32	0.968770	0.427900	0.802200
C331	C33	0.910060	0.428030	0.836920
C341	C34	0.875310	0.431780	0.811180
C351	C35	0.900460	0.435150	0.749300
C361	C36	0.959030	0.434860	0.714820
C371	C37	0.883490	0.427540	0.901200
C381	C38	0.864770	0.442740	0.718860
C391	C39	0.275510	0.463830	0.540760
C401	C40	0.242610	0.476010	0.511500
C411	C41	0.267240	0.482340	0.448080
C421	C42	0.323600	0.476950	0.414380
C431	C43	0.356160	0.465010	0.443080
C441	C44	0.332140	0.459260	0.505820
C451	C45	0.232900	0.498630	0.414860
C461	C46	0.419150	0.463440	0.405440
C471	C47	0.192040	0.501110	0.786940
C481	C48	0.252640	0.504660	0.748020
C491	C49	0.291690	0.517200	0.763080
C501	C50	0.271650	0.526350	0.815440
C511	C51	0.211330	0.524680	0.852020
C521	C52	0.172200	0.511480	0.837940
C531	C53	0.357300	0.522520	0.720980
C541	C54	0.190750	0.538030	0.905480
C551	C55	0.854040	0.103210	0.699040
C561	C56	0.892370	0.202630	0.649040
C571	C57	0.793230	0.151850	0.734800
C581	C58	0.827560	0.994010	0.740760
C591	C59	0.769900	0.968770	0.802200
C601	C60	0.735050	0.910060	0.836920
C611	C61	0.757040	0.875310	0.811180
C621	C62	0.815550	0.900460	0.749300
C631	C63	0.850320	0.959030	0.714820
C641	C64	0.671260	0.883490	0.901200
C651	C65	0.838400	0.864770	0.718860
C661	C66	0.995410	0.275510	0.540760
C671	C67	0.012490	0.242610	0.511500
C681	C68	0.069580	0.267240	0.448080
C691	C69	0.108670	0.323600	0.414380
C701	C70	0.091910	0.356160	0.443080
C711	C71	0.034920	0.332140	0.505820
C721	C72	0.086510	0.232900	0.414860
C731	C73	0.131120	0.419150	0.405440
C741	C74	0.711950	0.192040	0.786940
C751	C75	0.747320	0.252640	0.748020
C761	C76	0.719720	0.291690	0.763080
C771	C77	0.658210	0.271650	0.815440
C781	C78	0.623300	0.211330	0.852020
C791	C79	0.650580	0.172200	0.837940
C801	C80	0.756500	0.357300	0.720980
C811	C81	0.556490	0.190750	0.905480
C821	C82	0.446920	0.197750	0.699040
C831	C83	0.458590	0.148330	0.649040
C841	C84	0.471970	0.113350	0.734800
C851	C85	0.431680	0.265230	0.740760
C861	C86	0.427900	0.229030	0.802200
C871	C87	0.428030	0.253020	0.836920
C881	C88	0.431780	0.313510	0.811180
C891	C89	0.435150	0.350240	0.749300
C901	C90	0.434860	0.326150	0.714820
C911	C91	0.427540	0.215310	0.901200
C921	C92	0.442740	0.416370	0.718860
C931	C93	0.463830	0.183730	0.540760
C941	C94	0.476010	0.245890	0.511500
C951	C95	0.482340	0.284680	0.448080
C961	C96	0.476950	0.262020	0.414380
C971	C97	0.465010	0.200760	0.443080
C981	C98	0.459260	0.162040	0.505820
C991	C99	0.498630	0.352240	0.414860
C1001	C100	0.463440	0.175410	0.405440
C1011	C101	0.501110	0.021020	0.786940
C1021	C102	0.504660	0.999340	0.748020
C1031	C103	0.517200	0.945230	0.763080
C1041	C104	0.526350	0.912910	0.815440
C1051	C105	0.524680	0.936650	0.852020
C1061	C106	0.511480	0.989860	0.837940
C1071	C107	0.522520	0.921720	0.720980
C1081	C108	0.538030	0.903770	0.905480
C1091	C109	0.802250	0.145960	0.300960
C1101	C110	0.851670	0.107630	0.350960
C1111	C111	0.886650	0.206770	0.265200
C1121	C112	0.734770	0.172440	0.259240
C1131	C113	0.770970	0.230100	0.197800
C1141	C114	0.746980	0.264950	0.163080
C1151	C115	0.686490	0.242960	0.188820
C1161	C116	0.649760	0.184450	0.250700
C1171	C117	0.673850	0.149680	0.285180
C1181	C118	0.784690	0.328740	0.098800
C1191	C119	0.583630	0.161600	0.281140
C1201	C120	0.816270	0.004590	0.459240
C1211	C121	0.754110	0.987510	0.488500
C1221	C122	0.715320	0.930420	0.551920
C1231	C123	0.737980	0.891330	0.585620
C1241	C124	0.799240	0.908090	0.556920
C1251	C125	0.837960	0.965080	0.494180
C1261	C126	0.647760	0.913490	0.585140
C1271	C127	0.824590	0.868880	0.594560
C1281	C128	0.978980	0.288050	0.213060
C1291	C129	0.000660	0.252680	0.251980
C1301	C130	0.054770	0.280280	0.236920
C1311	C131	0.087090	0.341790	0.184560
C1321	C132	0.063350	0.376700	0.147980
C1331	C133	0.010140	0.349420	0.162060
C1341	C134	0.078280	0.243500	0.279020
C1351	C135	0.096230	0.443510	0.094520
C1361	C136	0.896790	0.553080	0.300960
C1371	C137	0.797370	0.541410	0.350960
C1381	C138	0.848150	0.528030	0.265200
C1391	C139	0.005990	0.568320	0.259240
C1401	C140	0.031230	0.572100	0.197800
C1411	C141	0.089940	0.571970	0.163080
C1421	C142	0.124690	0.568220	0.188820
C1431	C143	0.099540	0.564850	0.250700
C1441	C144	0.040970	0.565140	0.285180
C1451	C145	0.116510	0.572460	0.098800
C1461	C146	0.135230	0.557260	0.281140
C1471	C147	0.724490	0.536170	0.459240
C1481	C148	0.757390	0.523990	0.488500
C1491	C149	0.732760	0.517660	0.551920
C1501	C150	0.676400	0.523050	0.585620
C1511	C151	0.643840	0.534990	0.556920
C1521	C152	0.667860	0.540740	0.494180
C1531	C153	0.767100	0.501370	0.585140
C1541	C154	0.580850	0.536560	0.594560
C1551	C155	0.807960	0.498890	0.213060
C1561	C156	0.747360	0.495340	0.251980
C1571	C157	0.708310	0.482800	0.236920
C1581	C158	0.728350	0.473650	0.184560
C1591	C159	0.788670	0.475320	0.147980
C1601	C160	0.827800	0.488520	0.162060
C1611	C161	0.642700	0.477480	0.279020
C1621	C162	0.809250	0.461970	0.094520
C1631	C163	0.145960	0.896790	0.300960
C1641	C164	0.107630	0.797370	0.350960
C1651	C165	0.206770	0.848150	0.265200
C1661	C166	0.172440	0.005990	0.259240
C1671	C167	0.230100	0.031230	0.197800
C1681	C168	0.264950	0.089940	0.163080
C1691	C169	0.242960	0.124690	0.188820
C1701	C170	0.184450	0.099540	0.250700
C1711	C171	0.149680	0.040970	0.285180
C1721	C172	0.328740	0.116510	0.098800
C1731	C173	0.161600	0.135230	0.281140
C1741	C174	0.004590	0.724490	0.459240
C1751	C175	0.987510	0.757390	0.488500
C1761	C176	0.930420	0.732760	0.551920
C1771	C177	0.891330	0.676400	0.585620
C1781	C178	0.908090	0.643840	0.556920
C1791	C179	0.965080	0.667860	0.494180
C1801	C180	0.913490	0.767100	0.585140
C1811	C181	0.868880	0.580850	0.594560
C1821	C182	0.288050	0.807960	0.213060
C1831	C183	0.252680	0.747360	0.251980
C1841	C184	0.280280	0.708310	0.236920
C1851	C185	0.341790	0.728350	0.184560
C1861	C186	0.376700	0.788670	0.147980
C1871	C187	0.349420	0.827800	0.162060
C1881	C188	0.243500	0.642700	0.279020
C1891	C189	0.443510	0.809250	0.094520
C1901	C190	0.553080	0.802250	0.300960
C1911	C191	0.541410	0.851670	0.350960
C1921	C192	0.528030	0.886650	0.265200
C1931	C193	0.568320	0.734770	0.259240
C1941	C194	0.572100	0.770970	0.197800
C1951	C195	0.571970	0.746980	0.163080
C1961	C196	0.568220	0.686490	0.188820
C1971	C197	0.564850	0.649760	0.250700
C1981	C198	0.565140	0.673850	0.285180
C1991	C199	0.572460	0.784690	0.098800
C2001	C200	0.557260	0.583630	0.281140
C2011	C201	0.536170	0.816270	0.459240
C2021	C202	0.523990	0.754110	0.488500
C2031	C203	0.517660	0.715320	0.551920
C2041	C204	0.523050	0.737980	0.585620
C2051	C205	0.534990	0.799240	0.556920
C2061	C206	0.540740	0.837960	0.494180
C2071	C207	0.501370	0.647760	0.585140
C2081	C208	0.536560	0.824590	0.594560
C2091	C209	0.498890	0.978980	0.213060
C2101	C210	0.495340	0.000660	0.251980
C2111	C211	0.482800	0.054770	0.236920
C2121	C212	0.473650	0.087090	0.184560
C2131	C213	0.475320	0.063350	0.147980
C2141	C214	0.488520	0.010140	0.162060
C2151	C215	0.477480	0.078280	0.279020
C2161	C216	0.461970	0.096230	0.094520
N11	N1	0.159250	0.798860	0.741860
N21	N2	0.195520	0.903630	0.650460
N31	N3	0.104580	0.838060	0.691440
N41	N4	0.245470	0.867010	0.700320
N51	N5	0.142310	0.937590	0.600260
N61	N6	0.074120	0.735140	0.778320
N71	N7	0.098890	0.459280	0.741860
N81	N8	0.154020	0.445910	0.650460
N91	N9	0.203980	0.470500	0.691440
N101	N10	0.054210	0.432670	0.700320
N111	N11	0.257430	0.462150	0.600260
N121	N12	0.147560	0.486540	0.778320
N131	N13	0.798860	0.098890	0.741860
N141	N14	0.903630	0.154020	0.650460
N151	N15	0.838060	0.203980	0.691440
N161	N16	0.867010	0.054210	0.700320
N171	N17	0.937590	0.257430	0.600260
N181	N18	0.735140	0.147560	0.778320
N191	N19	0.459280	0.159250	0.741860
N201	N20	0.445910	0.195520	0.650460
N211	N21	0.470500	0.104580	0.691440
N221	N22	0.432670	0.245470	0.700320
N231	N23	0.462150	0.142310	0.600260
N241	N24	0.486540	0.074120	0.778320
N251	N25	0.840750	0.201140	0.258140
N261	N26	0.804480	0.096370	0.349540
N271	N27	0.895420	0.161940	0.308560
N281	N28	0.754530	0.132990	0.299680
N291	N29	0.857690	0.062410	0.399740
N301	N30	0.925880	0.264860	0.221680
N311	N31	0.901110	0.540720	0.258140
N321	N32	0.845980	0.554090	0.349540
N331	N33	0.796020	0.529500	0.308560
N341	N34	0.945790	0.567330	0.299680
N351	N35	0.742570	0.537850	0.399740
N361	N36	0.852440	0.513460	0.221680
N371	N37	0.201140	0.901110	0.258140
N381	N38	0.096370	0.845980	0.349540
N391	N39	0.161940	0.796020	0.308560
N401	N40	0.132990	0.945790	0.299680
N411	N41	0.062410	0.742570	0.399740
N421	N42	0.264860	0.852440	0.221680
N431	N43	0.540720	0.840750	0.258140
N441	N44	0.554090	0.804480	0.349540
N451	N45	0.529500	0.895420	0.308560
N461	N46	0.567330	0.754530	0.299680
N471	N47	0.537850	0.857690	0.399740
N481	N48	0.513460	0.925880	0.221680
O11	O1	0.160660	0.653200	0.924500
O21	O2	0.241710	0.639610	0.925680
O31	O3	0.436480	0.803940	0.749960
O41	O4	0.446140	0.890990	0.664340
O51	O5	0.372450	0.046710	0.441840
O61	O6	0.383780	0.139780	0.360920
O71	O7	0.212380	0.180840	0.347420
O81	O8	0.119550	0.112220	0.433180
O91	O9	0.957280	0.807830	0.665400
O101	O10	0.868830	0.732320	0.743980
O111	O11	0.851230	0.536540	0.925640
O121	O12	0.932230	0.524830	0.925960
O131	O13	0.914840	0.422300	0.924500
O141	O14	0.832610	0.434710	0.925680
O151	O15	0.813560	0.446100	0.749960
O161	O16	0.889520	0.444670	0.664340
O171	O17	0.185710	0.511450	0.441840
O181	O18	0.255300	0.499300	0.360920
O191	O19	0.440200	0.471740	0.347420
O201	O20	0.447270	0.454600	0.433180
O211	O21	0.377320	0.526770	0.665400
O221	O22	0.387190	0.523700	0.743980
O231	O23	0.223130	0.537820	0.925640
O241	O24	0.141810	0.549210	0.925960
O251	O25	0.653200	0.914840	0.924500
O261	O26	0.639610	0.832610	0.925680
O271	O27	0.803940	0.813560	0.749960
O281	O28	0.890990	0.889520	0.664340
O291	O29	0.046710	0.185710	0.441840
O301	O30	0.139780	0.255300	0.360920
O311	O31	0.180840	0.440200	0.347420
O321	O32	0.112220	0.447270	0.433180
O331	O33	0.807830	0.377320	0.665400
O341	O34	0.732320	0.387190	0.743980
O351	O35	0.536540	0.223130	0.925640
O361	O36	0.524830	0.141810	0.925960
O371	O37	0.422300	0.160660	0.924500
O381	O38	0.434710	0.241710	0.925680
O391	O39	0.446100	0.436480	0.749960
O401	O40	0.444670	0.446140	0.664340
O411	O41	0.511450	0.372450	0.441840
O421	O42	0.499300	0.383780	0.360920
O431	O43	0.471740	0.212380	0.347420
O441	O44	0.454600	0.119550	0.433180
O451	O45	0.526770	0.957280	0.665400
O461	O46	0.523700	0.868830	0.743980
O471	O47	0.537820	0.851230	0.925640
O481	O48	0.549210	0.932230	0.925960
O491	O49	0.839340	0.346800	0.075500
O501	O50	0.758290	0.360390	0.074320
O511	O51	0.563520	0.196060	0.250040
O521	O52	0.553860	0.109010	0.335660
O531	O53	0.627550	0.953290	0.558160
O541	O54	0.616220	0.860220	0.639080
O551	O55	0.787620	0.819160	0.652580
O561	O56	0.880450	0.887780	0.566820
O571	O57	0.042720	0.192170	0.334600
O581	O58	0.131170	0.267680	0.256020
O591	O59	0.148770	0.463460	0.074360
O601	O60	0.067770	0.475170	0.074040
O611	O61	0.085160	0.577700	0.075500
O621	O62	0.167390	0.565290	0.074320
O631	O63	0.186440	0.553900	0.250040
O641	O64	0.110480	0.555330	0.335660
O651	O65	0.814290	0.488550	0.558160
O661	O66	0.744700	0.500700	0.639080
O671	O67	0.559800	0.528260	0.652580
O681	O68	0.552730	0.545400	0.566820
O691	O69	0.622680	0.473230	0.334600
O701	O70	0.612810	0.476300	0.256020
O711	O71	0.776870	0.462180	0.074360
O721	O72	0.858190	0.450790	0.074040
O731	O73	0.346800	0.085160	0.075500
O741	O74	0.360390	0.167390	0.074320
O751	O75	0.196060	0.186440	0.250040
O761	O76	0.109010	0.110480	0.335660
O771	O77	0.953290	0.814290	0.558160
O781	O78	0.860220	0.744700	0.639080
O791	O79	0.819160	0.559800	0.652580
O801	O80	0.887780	0.552730	0.566820
O811	O81	0.192170	0.622680	0.334600
O821	O82	0.267680	0.612810	0.256020
O831	O83	0.463460	0.776870	0.074360
O841	O84	0.475170	0.858190	0.074040
O851	O85	0.577700	0.839340	0.075500
O861	O86	0.565290	0.758290	0.074320
O871	O87	0.553900	0.563520	0.250040
O881	O88	0.555330	0.553860	0.335660
O891	O89	0.488550	0.627550	0.558160
O901	O90	0.500700	0.616220	0.639080
O911	O91	0.528260	0.787620	0.652580
O921	O92	0.545400	0.880450	0.566820
O931	O93	0.473230	0.042720	0.334600
O941	O94	0.476300	0.131170	0.256020
O951	O95	0.462180	0.148770	0.074360
O961	O96	0.450790	0.067770	0.074040
