data_ZISFEO01_clean_PM
_symmetry_space_group_name_H-M	'P1'
_cell_length_a	7.281000
_cell_length_b	10.903000
_cell_length_c	15.148000
_cell_angle_alpha	90.000000
_cell_angle_beta	90.000000
_cell_angle_gamma	90.000000
_symmetry_Int_Tables_number 1

loop_
_symmetry_equiv_pos_as_xyz
'x,y,z'

loop_
_atom_site_label
_atom_site_type_symbol
_atom_site_fract_x
_atom_site_fract_y
_atom_site_fract_z
Mn11	Mn1	0.526680	0.099250	0.781530
Mn21	Mn2	0.973320	0.599250	0.281530
Mn31	Mn3	0.473320	0.599250	0.218470
Mn41	Mn4	0.026680	0.099250	0.718470
H11	H1	0.702000	0.498000	0.799700
H21	H2	0.903400	0.937700	0.381700
H31	H3	0.689600	0.855800	0.999700
H41	H4	0.152900	0.052300	0.984300
H51	H5	0.652900	0.052300	0.515700
H61	H6	0.660800	0.578000	0.886100
H71	H7	0.310400	0.355800	0.000300
H81	H8	0.449500	0.350600	0.698600
H91	H9	0.839200	0.078000	0.386100
H101	H10	0.847100	0.552300	0.015700
H111	H11	0.403400	0.937700	0.118300
H121	H12	0.798000	0.998000	0.299700
H131	H13	0.339200	0.078000	0.113900
H141	H14	0.298000	0.998000	0.200300
H151	H15	0.202000	0.498000	0.700300
H161	H16	0.810400	0.355800	0.499700
H171	H17	0.949500	0.350600	0.801400
H181	H18	0.050500	0.850600	0.198600
H191	H19	0.347100	0.552300	0.484300
H201	H20	0.189600	0.855800	0.500300
H211	H21	0.596600	0.437700	0.881700
H221	H22	0.096600	0.437700	0.618300
H231	H23	0.550500	0.850600	0.301400
H241	H24	0.160800	0.578000	0.613900
C11	C1	0.764300	0.253750	0.655150
C21	C2	0.356200	0.015490	0.605700
C31	C3	0.515700	0.878670	0.358390
C41	C4	0.575400	0.997950	0.483830
C51	C5	0.645700	0.339370	0.606230
C61	C6	0.143800	0.515490	0.105700
C71	C7	0.735700	0.753750	0.155150
C81	C8	0.912200	0.961830	0.979980
C91	C9	0.856200	0.015490	0.894300
C101	C10	0.354300	0.839370	0.393770
C111	C11	0.484300	0.378670	0.641610
C121	C12	0.145700	0.339370	0.893770
C131	C13	0.197600	0.381950	0.975120
C141	C14	0.587800	0.461830	0.479980
C151	C15	0.697600	0.381950	0.524880
C161	C16	0.371000	0.457270	0.597430
C171	C17	0.871000	0.457270	0.902570
C181	C18	0.643800	0.515490	0.394300
C191	C19	0.015700	0.878670	0.141610
C201	C20	0.854300	0.839370	0.106230
C211	C21	0.307600	0.996100	0.135740
C221	C22	0.302400	0.881950	0.475120
C231	C23	0.129000	0.957270	0.097430
C241	C24	0.692400	0.496100	0.864260
C251	C25	0.087800	0.461830	0.020020
C261	C26	0.802400	0.881950	0.024880
C271	C27	0.424600	0.497950	0.516170
C281	C28	0.412200	0.961830	0.520020
C291	C29	0.984300	0.378670	0.858390
C301	C30	0.235700	0.753750	0.344850
C311	C31	0.192400	0.496100	0.635740
C321	C32	0.075400	0.997950	0.016170
C331	C33	0.629000	0.957270	0.402570
C341	C34	0.264300	0.253750	0.844850
C351	C35	0.924600	0.497950	0.983830
C361	C36	0.807600	0.996100	0.364260
O11	O1	0.092060	0.717870	0.378330
O21	O2	0.781100	0.723010	0.231150
O31	O3	0.192170	0.013150	0.624740
O41	O4	0.407940	0.217870	0.878330
O51	O5	0.020590	0.561460	0.150170
O61	O6	0.807830	0.513150	0.375260
O71	O7	0.979410	0.061460	0.849830
O81	O8	0.592060	0.717870	0.121670
O91	O9	0.907940	0.217870	0.621670
O101	O10	0.718900	0.223010	0.731150
O111	O11	0.520590	0.561460	0.349830
O121	O12	0.479410	0.061460	0.650170
O131	O13	0.281100	0.723010	0.268850
O141	O14	0.692170	0.013150	0.875260
O151	O15	0.218900	0.223010	0.768850
O161	O16	0.307830	0.513150	0.124740
