data_ZISYAD_clean_PM
_symmetry_space_group_name_H-M	'P1'
_cell_length_a	7.111000
_cell_length_b	19.454900
_cell_length_c	19.454900
_cell_angle_alpha	88.086000
_cell_angle_beta	79.469800
_cell_angle_gamma	79.469700
_symmetry_Int_Tables_number 1

loop_
_symmetry_equiv_pos_as_xyz
'x,y,z'

loop_
_atom_site_label
_atom_site_type_symbol
_atom_site_fract_x
_atom_site_fract_y
_atom_site_fract_z
Cu11	Cu1	0.875000	0.050200	0.449800
Cu21	Cu2	0.375000	0.949800	0.550200
Cu31	Cu3	0.675200	0.449800	0.949800
Cu41	Cu4	0.074800	0.550200	0.050200
H11	H1	0.850500	0.207600	0.425800
H21	H2	0.613100	0.309600	0.442800
H31	H3	0.211300	0.188800	0.497200
H41	H4	0.450000	0.089800	0.476400
H51	H5	0.049500	0.282200	0.560800
H61	H6	0.796900	0.376200	0.574000
H71	H7	0.093600	0.475000	0.416000
H81	H8	0.345900	0.380000	0.400800
H91	H9	0.483900	0.792400	0.574200
H101	H10	0.365500	0.690400	0.557200
H111	H11	0.897300	0.811200	0.502800
H121	H12	0.016200	0.910200	0.523600
H131	H13	0.892500	0.717800	0.439200
H141	H14	0.747100	0.623800	0.426000
H151	H15	0.984600	0.525000	0.584000
H161	H16	0.126700	0.620000	0.599200
H171	H17	0.723700	0.425800	0.792400
H181	H18	0.944100	0.442800	0.690400
H191	H19	0.291500	0.497200	0.811200
H201	H20	0.073600	0.476400	0.910200
H211	H21	0.389700	0.560800	0.717800
H221	H22	0.629100	0.574000	0.623800
H231	H23	0.490400	0.416000	0.525000
H241	H24	0.253300	0.400800	0.620000
H251	H25	0.941900	0.574200	0.207600
H261	H26	0.077300	0.557200	0.309600
H271	H27	0.599900	0.502800	0.188800
H281	H28	0.460200	0.523600	0.089800
H291	H29	0.668300	0.439200	0.282200
H301	H30	0.826900	0.426000	0.376200
H311	H31	0.431400	0.584000	0.475000
H321	H32	0.274100	0.599200	0.380000
H331	H33	0.899500	0.074200	0.292400
H341	H34	0.136900	0.057200	0.190400
H351	H35	0.538700	0.002800	0.311200
H361	H36	0.300000	0.023600	0.410200
H371	H37	0.700500	0.939200	0.217800
H381	H38	0.953100	0.926000	0.123800
H391	H39	0.656400	0.084000	0.025000
H401	H40	0.404100	0.099200	0.120000
H411	H41	0.266100	0.925800	0.707600
H421	H42	0.384500	0.942800	0.809600
H431	H43	0.852700	0.997200	0.688800
H441	H44	0.733800	0.976400	0.589800
H451	H45	0.857500	0.060800	0.782200
H461	H46	0.002900	0.074000	0.876200
H471	H47	0.765400	0.916000	0.975000
H481	H48	0.623300	0.900800	0.880000
H491	H49	0.026300	0.707600	0.074200
H501	H50	0.805900	0.809600	0.057200
H511	H51	0.458500	0.688800	0.002800
H521	H52	0.676400	0.589800	0.023600
H531	H53	0.360300	0.782200	0.939200
H541	H54	0.120900	0.876200	0.926000
H551	H55	0.259600	0.975000	0.084000
H561	H56	0.496700	0.880000	0.099200
H571	H57	0.808100	0.292400	0.925800
H581	H58	0.672700	0.190400	0.942800
H591	H59	0.150100	0.311200	0.997200
H601	H60	0.289800	0.410200	0.976400
H611	H61	0.081700	0.217800	0.060800
H621	H62	0.923100	0.123800	0.074000
H631	H63	0.318600	0.025000	0.916000
H641	H64	0.475900	0.120000	0.900800
C11	C1	0.718400	0.204000	0.442400
C21	C2	0.576900	0.265000	0.451000
C31	C3	0.385000	0.259200	0.471400
C41	C4	0.342900	0.193900	0.482300
C51	C5	0.485200	0.134700	0.472300
C61	C6	0.222500	0.320500	0.479300
C71	C7	0.057700	0.321300	0.530700
C81	C8	0.907500	0.377100	0.538500
C91	C9	0.914700	0.435300	0.494900
C101	C10	0.083300	0.434900	0.444900
C111	C11	0.234500	0.379000	0.436000
C121	C12	0.364800	0.796000	0.557600
C131	C13	0.292900	0.735000	0.549000
C141	C14	0.115600	0.740800	0.528600
C151	C15	0.019100	0.806100	0.517700
C161	C16	0.092200	0.865300	0.527700
C171	C17	0.022300	0.679500	0.520700
C181	C18	0.909700	0.678700	0.469300
C191	C19	0.823100	0.622900	0.461500
C201	C20	0.844900	0.564700	0.505100
C211	C21	0.963100	0.565100	0.555100
C221	C22	0.049500	0.621000	0.564000
C231	C23	0.839200	0.442400	0.796000
C241	C24	0.972100	0.451000	0.735000
C251	C25	0.143600	0.471400	0.740800
C261	C26	0.174800	0.482300	0.806100
C271	C27	0.042500	0.472300	0.865300
C281	C28	0.298200	0.479300	0.679500
C291	C29	0.411600	0.530700	0.678700
C301	C30	0.554000	0.538500	0.622900
C311	C31	0.590400	0.494900	0.564700
C321	C32	0.471800	0.444900	0.565100
C331	C33	0.329500	0.436000	0.621000
C341	C34	0.077600	0.557600	0.204000
C351	C35	0.158100	0.549000	0.265000
C361	C36	0.355800	0.528600	0.259200
C371	C37	0.463200	0.517700	0.193900
C381	C38	0.380100	0.527700	0.134700
C391	C39	0.457000	0.520700	0.320500
C401	C40	0.621000	0.469300	0.321300
C411	C41	0.715400	0.461500	0.377100
C421	C42	0.650000	0.505100	0.435300
C431	C43	0.481800	0.555100	0.434900
C441	C44	0.386500	0.564000	0.379000
C451	C45	0.031600	0.057600	0.296000
C461	C46	0.173100	0.049000	0.235000
C471	C47	0.365000	0.028600	0.240800
C481	C48	0.407100	0.017700	0.306100
C491	C49	0.264800	0.027700	0.365300
C501	C50	0.527500	0.020700	0.179500
C511	C51	0.692300	0.969300	0.178700
C521	C52	0.842500	0.961500	0.122900
C531	C53	0.835300	0.005100	0.064700
C541	C54	0.666700	0.055100	0.065100
C551	C55	0.515500	0.064000	0.121000
C561	C56	0.385200	0.942400	0.704000
C571	C57	0.457100	0.951000	0.765000
C581	C58	0.634400	0.971400	0.759200
C591	C59	0.730900	0.982300	0.693900
C601	C60	0.657800	0.972300	0.634700
C611	C61	0.727700	0.979300	0.820500
C621	C62	0.840300	0.030700	0.821300
C631	C63	0.926900	0.038500	0.877100
C641	C64	0.905100	0.994900	0.935300
C651	C65	0.786900	0.944900	0.934900
C661	C66	0.700500	0.936000	0.879000
C671	C67	0.910800	0.704000	0.057600
C681	C68	0.777900	0.765000	0.049000
C691	C69	0.606400	0.759200	0.028600
C701	C70	0.575200	0.693900	0.017700
C711	C71	0.707500	0.634700	0.027700
C721	C72	0.451800	0.820500	0.020700
C731	C73	0.338400	0.821300	0.969300
C741	C74	0.196000	0.877100	0.961500
C751	C75	0.159600	0.935300	0.005100
C761	C76	0.278200	0.934900	0.055100
C771	C77	0.420500	0.879000	0.064000
C781	C78	0.672400	0.296000	0.942400
C791	C79	0.591900	0.235000	0.951000
C801	C80	0.394200	0.240800	0.971400
C811	C81	0.286800	0.306100	0.982300
C821	C82	0.369900	0.365300	0.972300
C831	C83	0.293000	0.179500	0.979300
C841	C84	0.129000	0.178700	0.030700
C851	C85	0.034600	0.122900	0.038500
C861	C86	0.100000	0.064700	0.994900
C871	C87	0.268200	0.065100	0.944900
C881	C88	0.363500	0.121000	0.936000
C891	C89	0.750000	0.500000	0.500000
C901	C90	0.000000	0.000000	0.000000
I11	I1	0.678070	0.946930	0.446930
I21	I2	0.071930	0.053070	0.553070
I31	I3	0.875000	0.446930	0.053070
I41	I4	0.375000	0.553070	0.946930
N11	N1	0.671600	0.140700	0.456900
N21	N2	0.269200	0.859300	0.543100
N31	N3	0.871500	0.456900	0.859300
N41	N4	0.187700	0.543100	0.140700
N51	N5	0.078400	0.043100	0.359300
N61	N6	0.480800	0.956900	0.640700
N71	N7	0.878500	0.640700	0.043100
N81	N8	0.562300	0.359300	0.956900
