data_ZITWIK_clean_PM
_symmetry_space_group_name_H-M	'P1'
_cell_length_a	15.692000
_cell_length_b	8.833500
_cell_length_c	9.529000
_cell_angle_alpha	90.000000
_cell_angle_beta	125.560000
_cell_angle_gamma	90.000000
_symmetry_Int_Tables_number 1

loop_
_symmetry_equiv_pos_as_xyz
'x,y,z'

loop_
_atom_site_label
_atom_site_type_symbol
_atom_site_fract_x
_atom_site_fract_y
_atom_site_fract_z
N11	N1	0.204220	0.033900	0.084600
N21	N2	0.248700	0.968000	0.216300
N31	N3	0.292830	0.898900	0.345200
N41	N4	0.422760	0.228700	0.242800
N51	N5	0.704220	0.533900	0.084600
N61	N6	0.748700	0.468000	0.216300
N71	N7	0.792830	0.398900	0.345200
N81	N8	0.922760	0.728700	0.242800
N91	N9	0.795780	0.033900	0.415400
N101	N10	0.751300	0.968000	0.283700
N111	N11	0.707170	0.898900	0.154800
N121	N12	0.577240	0.228700	0.257200
N131	N13	0.295780	0.533900	0.415400
N141	N14	0.251300	0.468000	0.283700
N151	N15	0.207170	0.398900	0.154800
N161	N16	0.077240	0.728700	0.257200
N171	N17	0.795780	0.966100	0.915400
N181	N18	0.751300	0.032000	0.783700
N191	N19	0.707170	0.101100	0.654800
N201	N20	0.577240	0.771300	0.757200
N211	N21	0.295780	0.466100	0.915400
N221	N22	0.251300	0.532000	0.783700
N231	N23	0.207170	0.601100	0.654800
N241	N24	0.077240	0.271300	0.757200
N251	N25	0.204220	0.966100	0.584600
N261	N26	0.248700	0.032000	0.716300
N271	N27	0.292830	0.101100	0.845200
N281	N28	0.422760	0.771300	0.742800
N291	N29	0.704220	0.466100	0.584600
N301	N30	0.748700	0.532000	0.716300
N311	N31	0.792830	0.601100	0.845200
N321	N32	0.922760	0.271300	0.742800
Cd11	Cd1	0.250000	0.250000	0.000000
Cd21	Cd2	0.750000	0.250000	0.500000
Cd31	Cd3	0.750000	0.750000	0.000000
Cd41	Cd4	0.250000	0.750000	0.500000
N331	N33	0.500000	0.230000	0.250000
N341	N34	0.000000	0.730000	0.250000
N351	N35	0.500000	0.770000	0.750000
N361	N36	0.000000	0.270000	0.750000
