data_ZIWLUO_clean_PM
_symmetry_space_group_name_H-M	'P1'
_cell_length_a	19.801000
_cell_length_b	20.162000
_cell_length_c	27.225000
_cell_angle_alpha	97.544000
_cell_angle_beta	100.609000
_cell_angle_gamma	111.627000
_symmetry_Int_Tables_number 1

loop_
_symmetry_equiv_pos_as_xyz
'x,y,z'

loop_
_atom_site_label
_atom_site_type_symbol
_atom_site_fract_x
_atom_site_fract_y
_atom_site_fract_z
Zn11	Zn1	0.554890	0.264880	0.880370
Zn21	Zn2	0.062650	0.668820	0.193640
Zn31	Zn3	0.473310	0.963880	0.675300
Zn41	Zn4	0.161660	0.762430	0.571250
Zn51	Zn5	0.040320	0.890180	0.349860
Zn61	Zn6	0.703540	0.367910	0.096310
Zn71	Zn7	0.453590	0.111280	0.668280
Zn81	Zn8	0.861400	0.358830	0.100110
Zn91	Zn9	0.932850	0.782220	0.406670
O11	O1	0.551300	0.338200	0.838620
O21	O2	0.638800	0.307900	0.814660
O31	O3	0.461000	0.849900	0.686500
O41	O4	0.543600	0.919200	0.653200
O51	O5	0.072700	0.750200	0.597600
O61	O6	0.035200	0.635900	0.563500
O71	O7	0.145500	0.942900	0.301740
O81	O8	0.057800	0.975000	0.320140
O91	O9	0.088300	0.582300	0.246800
O101	O10	0.126800	0.614800	0.178800
O111	O11	0.587200	0.396100	0.072300
O121	O12	0.613800	0.324000	0.120130
O131	O13	0.475900	0.260500	0.917450
O141	O14	0.507600	0.174100	0.942890
O151	O15	0.990200	0.384000	0.085190
O161	O16	0.920900	0.304600	0.122920
O171	O17	0.843900	0.761400	0.432700
O181	O18	0.884900	0.678700	0.454500
O191	O19	0.266400	0.758600	0.528600
O201	O20	0.212100	0.693800	0.577600
O211	O21	0.948900	0.871500	0.377460
O221	O22	0.159400	0.776500	0.192880
O231	O23	0.042400	0.750000	0.155800
O241	O24	0.771100	0.323400	0.128210
O251	O25	0.506200	0.052050	0.644760
N11	N1	0.239200	0.853700	0.622900
N21	N2	0.724900	0.566800	0.670730
N31	N3	0.632300	0.604400	0.690620
N41	N4	0.720400	0.675500	0.650080
N51	N5	0.192800	0.287300	0.218630
N61	N6	0.280500	0.242300	0.194660
N71	N7	0.275100	0.349900	0.171640
N81	N8	0.205900	0.181500	0.060960
N91	N9	0.135500	0.098900	0.105260
N101	N10	0.238800	0.084300	0.080740
N111	N11	0.539700	0.620700	0.539610
N121	N12	0.471600	0.530600	0.581060
N131	N13	0.580200	0.527200	0.557280
N141	N14	0.128800	0.798200	0.508800
N151	N15	0.037800	0.807300	0.448550
N161	N16	0.120400	0.901900	0.412700
N171	N17	0.250900	0.944400	0.453700
N181	N18	0.295100	0.898600	0.518200
H11	H1	0.340700	0.929400	0.519100
H21	H2	0.288600	0.868700	0.539500
N191	N19	0.017900	0.789600	0.309980
N201	N20	0.034000	0.703500	0.257360
N211	N21	0.920800	0.708600	0.344010
N221	N22	0.885000	0.582400	0.309000
N231	N23	0.947200	0.539700	0.258100
H31	H3	0.920900	0.495100	0.260900
H41	H4	0.980600	0.547100	0.239800
N241	N24	0.963200	0.586200	0.150520
N251	N25	0.887900	0.465900	0.121780
N261	N26	0.768000	0.475000	0.123500
N271	N27	0.779200	0.597400	0.151700
N281	N28	0.891200	0.696800	0.170800
H51	H5	0.867100	0.724800	0.176500
H61	H6	0.940000	0.716500	0.174400
N291	N29	0.699400	0.338400	0.022350
N301	N30	0.648300	0.303000	0.937140
N311	N31	0.813900	0.318500	0.023310
N321	N32	0.821900	0.271500	0.940200
N331	N33	0.737100	0.256400	0.866100
H71	H7	0.765400	0.242900	0.849100
H81	H8	0.695300	0.257700	0.849400
N341	N34	0.520300	0.171800	0.827390
N351	N35	0.481800	0.116400	0.743530
N361	N36	0.516100	0.014300	0.750610
N371	N37	0.577800	0.017300	0.836200
N381	N38	0.591400	0.103300	0.905500
H91	H9	0.612700	0.081600	0.925300
H101	H10	0.585600	0.142400	0.919000
N391	N39	0.117700	0.915300	0.602200
H111	H11	0.085800	0.936100	0.597200
H121	H12	0.101000	0.867700	0.599800
N401	N40	0.218000	0.029000	0.617200
N411	N41	0.344700	0.045000	0.643520
N421	N42	0.361400	0.932900	0.651360
C11	C1	0.599400	0.342800	0.812500
C21	C2	0.609000	0.395600	0.776800
C31	C3	0.577900	0.446200	0.778500
H131	H13	0.545100	0.445500	0.800100
C41	C4	0.594000	0.497800	0.749200
H141	H14	0.572100	0.532500	0.750500
C51	C5	0.642600	0.499700	0.717500
C61	C6	0.671300	0.446500	0.713900
H151	H15	0.702700	0.445700	0.691500
C71	C7	0.653600	0.394800	0.743400
H161	H16	0.672500	0.357800	0.740600
C81	C8	0.667600	0.560300	0.691400
C91	C9	0.660900	0.661600	0.669600
C101	C10	0.751600	0.627200	0.652800
C111	C11	0.622900	0.712800	0.667700
C121	C12	0.563900	0.702500	0.690200
H171	H17	0.547000	0.662200	0.706000
C131	C13	0.552100	0.809000	0.667600
C141	C14	0.610200	0.818000	0.644900
H181	H18	0.626700	0.858400	0.629100
C151	C15	0.645700	0.770000	0.644300
H191	H19	0.685300	0.777000	0.627700
C161	C16	0.516600	0.862500	0.668800
C171	C17	0.820300	0.641900	0.635200
C181	C18	0.860200	0.710600	0.626700
H201	H20	0.841800	0.747800	0.630600
C191	C19	0.927700	0.724400	0.612400
H211	H21	0.955200	0.771800	0.607500
C201	C20	0.955100	0.672100	0.605400
C211	C21	0.914300	0.603800	0.613600
H221	H22	0.932300	0.566300	0.609100
C221	C22	0.848400	0.589600	0.628100
H231	H23	0.821500	0.542300	0.633300
C231	C23	0.027100	0.688000	0.588800
C241	C24	0.113700	0.984500	0.300900
C251	C25	0.140500	0.051100	0.278800
C261	C26	0.105600	0.099400	0.278600
H241	H24	0.062800	0.090500	0.292000
C271	C27	0.133600	0.160300	0.258800
H251	H25	0.110500	0.194000	0.259300
C281	C28	0.194100	0.173300	0.238400
C291	C29	0.228900	0.125700	0.239600
H261	H26	0.272300	0.135200	0.226800
C301	C30	0.201600	0.064600	0.259000
H271	H27	0.225300	0.031400	0.258700
C311	C31	0.223900	0.238100	0.215700
C321	C32	0.220000	0.342300	0.195800
C331	C33	0.305900	0.300600	0.174500
C341	C34	0.190600	0.397900	0.196300
C351	C35	0.143800	0.402700	0.227600
H281	H28	0.126800	0.365500	0.246100
C361	C36	0.121500	0.459500	0.232700
H291	H29	0.091700	0.462800	0.255800
C371	C37	0.142300	0.511500	0.204400
C381	C38	0.185700	0.506200	0.170800
H301	H30	0.198100	0.541100	0.150100
C391	C39	0.211600	0.450300	0.167000
H311	H31	0.242800	0.448000	0.144700
C401	C40	0.118000	0.576400	0.212200
C411	C41	0.371500	0.311600	0.152900
C421	C42	0.396700	0.367300	0.127200
H321	H32	0.370300	0.397800	0.122100
C431	C43	0.458700	0.378600	0.109400
H331	H33	0.474500	0.415800	0.090800
C441	C44	0.499200	0.336000	0.118200
C451	C45	0.474300	0.281000	0.142800
H341	H34	0.501200	0.251100	0.148200
C461	C46	0.410600	0.268000	0.160100
H351	H35	0.393600	0.228900	0.177000
C471	C47	0.571800	0.352600	0.101900
C481	C48	0.469300	0.210600	0.942700
C491	C49	0.412700	0.195800	0.973500
C501	C50	0.371300	0.236300	0.978300
H361	H36	0.378500	0.276000	0.961600
C511	C51	0.318700	0.220000	0.007200
H371	H37	0.290500	0.248900	0.010100
C521	C52	0.306900	0.163100	0.031700
C531	C53	0.348400	0.123300	0.027300
H381	H38	0.341400	0.083900	0.044200
C541	C54	0.400700	0.139200	0.998800
H391	H39	0.429100	0.110400	0.996500
C551	C55	0.246900	0.141000	0.059400
C561	C56	0.151800	0.157600	0.085800
C571	C57	0.180900	0.065000	0.102400
C581	C58	0.107000	0.201000	0.090400
C591	C59	0.120300	0.263200	0.069200
H401	H40	0.158700	0.277600	0.051600
C601	C60	0.078300	0.302800	0.073800
H411	H41	0.086600	0.343600	0.058200
C611	C61	0.024000	0.285100	0.100800
C621	C62	0.010400	0.223600	0.122900
H421	H42	0.972800	0.210200	0.141200
C631	C63	0.052200	0.183600	0.117400
H431	H43	0.043500	0.142400	0.132700
C641	C64	0.976500	0.328000	0.103800
C651	C65	0.166000	0.997600	0.122400
C661	C66	0.096100	0.960800	0.129000
H441	H44	0.059100	0.980300	0.123200
C671	C67	0.079600	0.894800	0.144300
H451	H45	0.030700	0.869200	0.148400
C681	C68	0.131200	0.866100	0.153600
C691	C69	0.202800	0.905200	0.149300
H461	H46	0.241100	0.888000	0.158000
C701	C70	0.218200	0.969200	0.132600
H471	H47	0.266900	0.994400	0.128000
C711	C71	0.110400	0.793500	0.168500
C721	C72	0.838600	0.706700	0.452900
C731	C73	0.771100	0.674400	0.474900
C741	C74	0.720900	0.705200	0.474300
H481	H48	0.727600	0.746100	0.459000
C751	C75	0.659800	0.678800	0.495300
H491	H49	0.625500	0.701700	0.495100
C761	C76	0.650600	0.618200	0.516500
C771	C77	0.701500	0.586500	0.516000
H501	H50	0.695700	0.545100	0.530600
C781	C78	0.761300	0.614900	0.494200
H511	H51	0.795300	0.592000	0.493000
C791	C79	0.586200	0.587600	0.539400
C801	C80	0.482000	0.589100	0.560300
C811	C81	0.520400	0.501700	0.577800
C821	C82	0.508900	0.434500	0.598800
C831	C83	0.456900	0.413100	0.626900
H521	H52	0.429300	0.441600	0.633400
C841	C84	0.444600	0.351700	0.645300
H531	H53	0.409000	0.337900	0.665200
C851	C85	0.482800	0.309400	0.635700
C861	C86	0.535300	0.328800	0.608500
H541	H54	0.562200	0.299400	0.602100
C871	C87	0.549200	0.393700	0.589800
H551	H55	0.586200	0.408800	0.571100
C881	C88	0.425200	0.621700	0.560200
C891	C89	0.433800	0.684000	0.541900
H561	H56	0.476800	0.707500	0.529800
C901	C90	0.381300	0.711500	0.541100
H571	H57	0.388100	0.754400	0.528100
C911	C91	0.319800	0.680800	0.557800
C921	C92	0.313000	0.622200	0.578700
H581	H58	0.271500	0.602100	0.592900
C931	C93	0.364900	0.590000	0.580200
H591	H59	0.358800	0.548100	0.594400
C941	C94	0.258200	0.711100	0.557500
C951	C95	0.056800	0.776100	0.486500
H601	H60	0.019600	0.739400	0.496900
C961	C96	0.162000	0.850700	0.482600
C971	C97	0.106700	0.856800	0.446900
C981	C98	0.193900	0.943200	0.420700
H611	H61	0.206000	0.976600	0.398900
C991	C99	0.236600	0.897200	0.485000
C1001	C100	0.052600	0.773200	0.276400
H621	H62	0.089800	0.810500	0.266300
C1011	C101	0.970200	0.722600	0.313000
C1021	C102	0.979600	0.669900	0.282200
C1031	C103	0.936600	0.595600	0.281200
C1041	C104	0.879900	0.636900	0.337200
H631	H63	0.842000	0.624000	0.355400
C1051	C105	0.957200	0.519100	0.135400
H641	H64	0.000100	0.508800	0.134200
C1061	C106	0.843800	0.503100	0.130900
C1071	C107	0.889100	0.576400	0.147400
C1081	C108	0.854000	0.625000	0.156700
C1091	C109	0.741900	0.526600	0.135900
H651	H65	0.689400	0.509000	0.132800
C1101	C110	0.642000	0.328200	0.983000
H661	H66	0.600000	0.338300	0.987500
C1111	C111	0.715900	0.295800	0.947500
C1121	C112	0.746700	0.317600	0.999500
C1131	C113	0.845600	0.292500	0.989900
H671	H67	0.891200	0.288900	0.004600
C1141	C114	0.757600	0.274600	0.916800
C1151	C115	0.488900	0.170900	0.779900
H681	H68	0.472000	0.207700	0.772200
C1161	C116	0.511300	0.077500	0.771000
C1171	C117	0.534400	0.109800	0.821400
C1181	C118	0.567800	0.077100	0.855100
C1191	C119	0.550600	0.989900	0.786000
H691	H69	0.556700	0.946600	0.773700
C1201	C120	0.310700	0.863500	0.639800
H701	H70	0.324700	0.823800	0.643500
C1211	C121	0.320000	0.972800	0.640000
C1221	C122	0.290500	0.067100	0.630300
H711	H71	0.306300	0.117700	0.630300
C1231	C123	0.191600	0.955800	0.613400
C1241	C124	0.245500	0.924300	0.623900
C1251	C125	0.529600	0.751000	0.689600
H721	H72	0.488900	0.743300	0.705100
O261	O26	0.499500	0.199900	0.641500
O271	O27	0.424200	0.224400	0.682200
C1261	C126	0.469600	0.239000	0.653600
Zn101	Zn10	0.445110	0.735120	0.119630
Zn111	Zn11	0.937350	0.331180	0.806360
Zn121	Zn12	0.526690	0.036120	0.324700
Zn131	Zn13	0.838340	0.237570	0.428750
Zn141	Zn14	0.959680	0.109820	0.650140
Zn151	Zn15	0.296460	0.632090	0.903690
Zn161	Zn16	0.546410	0.888720	0.331720
Zn171	Zn17	0.138600	0.641170	0.899890
Zn181	Zn18	0.067150	0.217780	0.593330
O281	O28	0.448700	0.661800	0.161380
O291	O29	0.361200	0.692100	0.185340
O301	O30	0.539000	0.150100	0.313500
O311	O31	0.456400	0.080800	0.346800
O321	O32	0.927300	0.249800	0.402400
O331	O33	0.964800	0.364100	0.436500
O341	O34	0.854500	0.057100	0.698260
O351	O35	0.942200	0.025000	0.679860
O361	O36	0.911700	0.417700	0.753200
O371	O37	0.873200	0.385200	0.821200
O381	O38	0.412800	0.603900	0.927700
O391	O39	0.386200	0.676000	0.879870
O401	O40	0.524100	0.739500	0.082550
O411	O41	0.492400	0.825900	0.057110
O421	O42	0.009800	0.616000	0.914810
O431	O43	0.079100	0.695400	0.877080
O441	O44	0.156100	0.238600	0.567300
O451	O45	0.115100	0.321300	0.545500
O461	O46	0.733600	0.241400	0.471400
O471	O47	0.787900	0.306200	0.422400
O481	O48	0.051100	0.128500	0.622540
O491	O49	0.840600	0.223500	0.807120
O501	O50	0.957600	0.250000	0.844200
O511	O51	0.228900	0.676600	0.871790
O521	O52	0.493800	0.947950	0.355240
N431	N43	0.760800	0.146300	0.377100
N441	N44	0.275100	0.433200	0.329270
N451	N45	0.367700	0.395600	0.309380
N461	N46	0.279600	0.324500	0.349920
N471	N47	0.807200	0.712700	0.781370
N481	N48	0.719500	0.757700	0.805340
N491	N49	0.724900	0.650100	0.828360
N501	N50	0.794100	0.818500	0.939040
N511	N51	0.864500	0.901100	0.894740
N521	N52	0.761200	0.915700	0.919260
N531	N53	0.460300	0.379300	0.460390
N541	N54	0.528400	0.469400	0.418940
N551	N55	0.419800	0.472800	0.442720
N561	N56	0.871200	0.201800	0.491200
N571	N57	0.962200	0.192700	0.551450
N581	N58	0.879600	0.098100	0.587300
N591	N59	0.749100	0.055600	0.546300
N601	N60	0.704900	0.101400	0.481800
H731	H73	0.659300	0.070600	0.480900
H741	H74	0.711400	0.131300	0.460500
N611	N61	0.982100	0.210400	0.690020
N621	N62	0.966000	0.296500	0.742640
N631	N63	0.079200	0.291400	0.655990
N641	N64	0.115000	0.417600	0.691000
N651	N65	0.052800	0.460300	0.741900
H751	H75	0.079100	0.504900	0.739100
H761	H76	0.019400	0.452900	0.760200
N661	N66	0.036800	0.413800	0.849480
N671	N67	0.112100	0.534100	0.878220
N681	N68	0.232000	0.525000	0.876500
N691	N69	0.220800	0.402600	0.848300
N701	N70	0.108800	0.303200	0.829200
H771	H77	0.132900	0.275200	0.823500
H781	H78	0.060000	0.283500	0.825600
N711	N71	0.300600	0.661600	0.977650
N721	N72	0.351700	0.697000	0.062860
N731	N73	0.186100	0.681500	0.976690
N741	N74	0.178100	0.728500	0.059800
N751	N75	0.262900	0.743600	0.133900
H791	H79	0.234600	0.757100	0.150900
H801	H80	0.304700	0.742300	0.150600
N761	N76	0.479700	0.828200	0.172610
N771	N77	0.518200	0.883600	0.256470
N781	N78	0.483900	0.985700	0.249390
N791	N79	0.422200	0.982700	0.163800
N801	N80	0.408600	0.896700	0.094500
H811	H81	0.387300	0.918400	0.074700
H821	H82	0.414400	0.857600	0.081000
N811	N81	0.882300	0.084700	0.397800
H831	H83	0.914200	0.063900	0.402800
H841	H84	0.899000	0.132300	0.400200
N821	N82	0.782000	0.971000	0.382800
N831	N83	0.655300	0.955000	0.356480
N841	N84	0.638600	0.067100	0.348640
C1271	C127	0.400600	0.657200	0.187500
C1281	C128	0.391000	0.604400	0.223200
C1291	C129	0.422100	0.553800	0.221500
H851	H85	0.454900	0.554500	0.199900
C1301	C130	0.406000	0.502200	0.250800
H861	H86	0.427900	0.467500	0.249500
C1311	C131	0.357400	0.500300	0.282500
C1321	C132	0.328700	0.553500	0.286100
H871	H87	0.297300	0.554300	0.308500
C1331	C133	0.346400	0.605200	0.256600
H881	H88	0.327500	0.642200	0.259400
C1341	C134	0.332400	0.439700	0.308600
C1351	C135	0.339100	0.338400	0.330400
C1361	C136	0.248400	0.372800	0.347200
C1371	C137	0.377100	0.287200	0.332300
C1381	C138	0.436100	0.297500	0.309800
H891	H89	0.453000	0.337800	0.294000
C1391	C139	0.447900	0.191000	0.332400
C1401	C140	0.389800	0.182000	0.355100
H901	H90	0.373300	0.141600	0.370900
C1411	C141	0.354300	0.230000	0.355700
H911	H91	0.314700	0.223000	0.372300
C1421	C142	0.483400	0.137500	0.331200
C1431	C143	0.179700	0.358100	0.364800
C1441	C144	0.139800	0.289400	0.373300
H921	H92	0.158200	0.252200	0.369400
C1451	C145	0.072300	0.275600	0.387600
H931	H93	0.044800	0.228200	0.392500
C1461	C146	0.044900	0.327900	0.394600
C1471	C147	0.085700	0.396200	0.386400
H941	H94	0.067700	0.433700	0.390900
C1481	C148	0.151600	0.410400	0.371900
H951	H95	0.178500	0.457700	0.366700
C1491	C149	0.972900	0.312000	0.411200
C1501	C150	0.886300	0.015500	0.699100
C1511	C151	0.859500	0.948900	0.721200
C1521	C152	0.894400	0.900600	0.721400
H961	H96	0.937200	0.909500	0.708000
C1531	C153	0.866400	0.839700	0.741200
H971	H97	0.889500	0.806000	0.740700
C1541	C154	0.805900	0.826700	0.761600
C1551	C155	0.771100	0.874300	0.760400
H981	H98	0.727700	0.864800	0.773200
C1561	C156	0.798400	0.935400	0.741000
H991	H99	0.774700	0.968600	0.741300
C1571	C157	0.776100	0.761900	0.784300
C1581	C158	0.780000	0.657700	0.804200
C1591	C159	0.694100	0.699400	0.825500
C1601	C160	0.809400	0.602100	0.803700
C1611	C161	0.856200	0.597300	0.772400
H1001	H100	0.873200	0.634500	0.753900
C1621	C162	0.878500	0.540500	0.767300
H1011	H101	0.908300	0.537200	0.744200
C1631	C163	0.857700	0.488500	0.795600
C1641	C164	0.814300	0.493800	0.829200
H1021	H102	0.801900	0.458900	0.849900
C1651	C165	0.788400	0.549700	0.833000
H1031	H103	0.757200	0.552000	0.855300
C1661	C166	0.882000	0.423600	0.787800
C1671	C167	0.628500	0.688400	0.847100
C1681	C168	0.603300	0.632700	0.872800
H1041	H104	0.629700	0.602200	0.877900
C1691	C169	0.541300	0.621400	0.890600
H1051	H105	0.525500	0.584200	0.909200
C1701	C170	0.500800	0.664000	0.881800
C1711	C171	0.525700	0.719000	0.857200
H1061	H106	0.498800	0.748900	0.851800
C1721	C172	0.589400	0.732000	0.839900
H1071	H107	0.606400	0.771100	0.823000
C1731	C173	0.428200	0.647400	0.898100
C1741	C174	0.530700	0.789400	0.057300
C1751	C175	0.587300	0.804200	0.026500
C1761	C176	0.628700	0.763700	0.021700
H1081	H108	0.621500	0.724000	0.038400
C1771	C177	0.681300	0.780000	0.992800
H1091	H109	0.709500	0.751100	0.989900
C1781	C178	0.693100	0.836900	0.968300
C1791	C179	0.651600	0.876700	0.972700
H1101	H110	0.658600	0.916100	0.955800
C1801	C180	0.599300	0.860800	0.001200
H1111	H111	0.570900	0.889600	0.003500
C1811	C181	0.753100	0.859000	0.940600
C1821	C182	0.848200	0.842400	0.914200
C1831	C183	0.819100	0.935000	0.897600
C1841	C184	0.893000	0.799000	0.909600
C1851	C185	0.879700	0.736800	0.930800
H1121	H112	0.841300	0.722400	0.948400
C1861	C186	0.921700	0.697200	0.926200
H1131	H113	0.913400	0.656400	0.941800
C1871	C187	0.976000	0.714900	0.899200
C1881	C188	0.989600	0.776400	0.877100
H1141	H114	0.027200	0.789800	0.858800
C1891	C189	0.947800	0.816400	0.882600
H1151	H115	0.956500	0.857600	0.867300
C1901	C190	0.023500	0.672000	0.896200
C1911	C191	0.834000	0.002400	0.877600
C1921	C192	0.903900	0.039200	0.871000
H1161	H116	0.940900	0.019700	0.876800
C1931	C193	0.920400	0.105200	0.855700
H1171	H117	0.969300	0.130800	0.851600
C1941	C194	0.868800	0.133900	0.846400
C1951	C195	0.797200	0.094800	0.850700
H1181	H118	0.758900	0.112000	0.842000
C1961	C196	0.781800	0.030800	0.867400
H1191	H119	0.733100	0.005600	0.872000
C1971	C197	0.889600	0.206500	0.831500
C1981	C198	0.161400	0.293300	0.547100
C1991	C199	0.228900	0.325600	0.525100
C2001	C200	0.279100	0.294800	0.525700
H1201	H120	0.272400	0.253900	0.541000
C2011	C201	0.340200	0.321200	0.504700
H1211	H121	0.374500	0.298300	0.504900
C2021	C202	0.349400	0.381800	0.483500
C2031	C203	0.298500	0.413500	0.484000
H1221	H122	0.304300	0.454900	0.469400
C2041	C204	0.238700	0.385100	0.505800
H1231	H123	0.204700	0.408000	0.507000
C2051	C205	0.413800	0.412400	0.460600
C2061	C206	0.518000	0.410900	0.439700
C2071	C207	0.479600	0.498300	0.422200
C2081	C208	0.491100	0.565500	0.401200
C2091	C209	0.543100	0.586900	0.373100
H1241	H124	0.570700	0.558400	0.366600
C2101	C210	0.555400	0.648300	0.354700
H1251	H125	0.591000	0.662100	0.334800
C2111	C211	0.517200	0.690600	0.364300
C2121	C212	0.464700	0.671200	0.391500
H1261	H126	0.437800	0.700600	0.397900
C2131	C213	0.450800	0.606300	0.410200
H1271	H127	0.413800	0.591200	0.428900
C2141	C214	0.574800	0.378300	0.439800
C2151	C215	0.566200	0.316000	0.458100
H1281	H128	0.523200	0.292500	0.470200
C2161	C216	0.618700	0.288500	0.458900
H1291	H129	0.611900	0.245600	0.471900
C2171	C217	0.680200	0.319200	0.442200
C2181	C218	0.687000	0.377800	0.421300
H1301	H130	0.728500	0.397900	0.407100
C2191	C219	0.635100	0.410000	0.419800
H1311	H131	0.641200	0.451900	0.405600
C2201	C220	0.741800	0.288900	0.442500
C2211	C221	0.943200	0.223900	0.513500
H1321	H132	0.980400	0.260600	0.503100
C2221	C222	0.838000	0.149300	0.517400
C2231	C223	0.893300	0.143200	0.553100
C2241	C224	0.806100	0.056800	0.579300
H1331	H133	0.794000	0.023400	0.601100
C2251	C225	0.763400	0.102800	0.515000
C2261	C226	0.947400	0.226800	0.723600
H1341	H134	0.910200	0.189500	0.733700
C2271	C227	0.029800	0.277400	0.687000
C2281	C228	0.020400	0.330100	0.717800
C2291	C229	0.063400	0.404400	0.718800
C2301	C230	0.120100	0.363100	0.662800
H1351	H135	0.158000	0.376000	0.644600
C2311	C231	0.042800	0.480900	0.864600
H1361	H136	0.999900	0.491200	0.865800
C2321	C232	0.156200	0.496900	0.869100
C2331	C233	0.110900	0.423600	0.852600
C2341	C234	0.146000	0.375000	0.843300
C2351	C235	0.258100	0.473400	0.864100
H1371	H137	0.310600	0.491000	0.867200
C2361	C236	0.358000	0.671800	0.017000
H1381	H138	0.400000	0.661700	0.012500
C2371	C237	0.284100	0.704200	0.052500
C2381	C238	0.253300	0.682400	0.000500
C2391	C239	0.154400	0.707500	0.010100
H1391	H139	0.108800	0.711100	0.995400
C2401	C240	0.242400	0.725400	0.083200
C2411	C241	0.511100	0.829100	0.220100
H1401	H140	0.528000	0.792300	0.227800
C2421	C242	0.488700	0.922500	0.229000
C2431	C243	0.465600	0.890200	0.178600
C2441	C244	0.432200	0.922900	0.144900
C2451	C245	0.449400	0.010100	0.214000
H1411	H141	0.443300	0.053400	0.226300
C2461	C246	0.689300	0.136500	0.360200
H1421	H142	0.675300	0.176200	0.356500
C2471	C247	0.680000	0.027200	0.360000
C2481	C248	0.709500	0.932900	0.369700
H1431	H143	0.693700	0.882300	0.369700
C2491	C249	0.808400	0.044200	0.386600
C2501	C250	0.754500	0.075700	0.376100
C2511	C251	0.470400	0.249000	0.310400
H1441	H144	0.511100	0.256700	0.294900
O531	O53	0.500500	0.800100	0.358500
O541	O54	0.575800	0.775600	0.317800
C2521	C252	0.530400	0.761000	0.346400
