data_ZIWMEZ_clean_PM
_symmetry_space_group_name_H-M	'P1'
_cell_length_a	5.778200
_cell_length_b	20.408100
_cell_length_c	16.100900
_cell_angle_alpha	90.000000
_cell_angle_beta	94.674000
_cell_angle_gamma	90.000000
_symmetry_Int_Tables_number 1

loop_
_symmetry_equiv_pos_as_xyz
'x,y,z'

loop_
_atom_site_label
_atom_site_type_symbol
_atom_site_fract_x
_atom_site_fract_y
_atom_site_fract_z
Ag11	Ag1	0.288210	0.530800	0.540900
Ag21	Ag2	0.808570	0.573000	0.602840
N11	N1	0.438900	0.478510	0.642930
N21	N2	0.655200	0.499790	0.674740
N31	N3	0.502000	0.287980	0.965700
N41	N4	0.916800	0.625320	0.498280
N51	N5	0.124200	0.605770	0.469460
N61	N6	0.911000	0.845350	0.212020
C11	C1	0.711800	0.465730	0.744700
H11	H1	0.853200	0.470500	0.778600
C21	C2	0.533500	0.422200	0.760800
C31	C3	0.365600	0.432900	0.694500
H21	H2	0.220300	0.411000	0.687200
C41	C4	0.691400	0.324900	0.956100
H31	H3	0.820700	0.320600	0.996100
C51	C5	0.708200	0.368700	0.891200
H41	H4	0.845800	0.393700	0.888100
C61	C6	0.524000	0.376110	0.830400
C71	C7	0.327900	0.337900	0.839700
H51	H5	0.196400	0.341200	0.800400
C81	C8	0.325800	0.295200	0.906300
H61	H6	0.190900	0.269200	0.910500
C91	C9	0.172400	0.647500	0.409400
H71	H7	0.307000	0.645500	0.379300
C101	C10	0.998600	0.694270	0.397000
C111	C11	0.839300	0.677860	0.455500
H81	H8	0.699200	0.700600	0.463200
C121	C12	0.096600	0.805300	0.216400
H91	H9	0.207500	0.810800	0.176500
C131	C13	0.134700	0.757000	0.275300
H101	H10	0.269000	0.730100	0.275400
C141	C14	0.974400	0.747250	0.335700
C151	C15	0.784700	0.790200	0.331500
H111	H11	0.671900	0.786700	0.371100
C161	C16	0.760800	0.837400	0.270500
H121	H12	0.630700	0.865900	0.269700
Ag31	Ag3	0.711790	0.030800	0.959100
Ag41	Ag4	0.191430	0.073000	0.897160
N71	N7	0.561100	0.978510	0.857070
N81	N8	0.344800	0.999790	0.825260
N91	N9	0.498000	0.787980	0.534300
N101	N10	0.083200	0.125320	0.001720
N111	N11	0.875800	0.105770	0.030540
N121	N12	0.089000	0.345350	0.287980
C171	C17	0.288200	0.965730	0.755300
H131	H13	0.146800	0.970500	0.721400
C181	C18	0.466500	0.922200	0.739200
C191	C19	0.634400	0.932900	0.805500
H141	H14	0.779700	0.911000	0.812800
C201	C20	0.308600	0.824900	0.543900
H151	H15	0.179300	0.820600	0.503900
C211	C21	0.291800	0.868700	0.608800
H161	H16	0.154200	0.893700	0.611900
C221	C22	0.476000	0.876110	0.669600
C231	C23	0.672100	0.837900	0.660300
H171	H17	0.803600	0.841200	0.699600
C241	C24	0.674200	0.795200	0.593700
H181	H18	0.809100	0.769200	0.589500
C251	C25	0.827600	0.147500	0.090600
H191	H19	0.693000	0.145500	0.120700
C261	C26	0.001400	0.194270	0.103000
C271	C27	0.160700	0.177860	0.044500
H201	H20	0.300800	0.200600	0.036800
C281	C28	0.903400	0.305300	0.283600
H211	H21	0.792500	0.310800	0.323500
C291	C29	0.865300	0.257000	0.224700
H221	H22	0.731000	0.230100	0.224600
C301	C30	0.025600	0.247250	0.164300
C311	C31	0.215300	0.290200	0.168500
H231	H23	0.328100	0.286700	0.128900
C321	C32	0.239200	0.337400	0.229500
H241	H24	0.369300	0.365900	0.230300
Ag51	Ag5	0.711790	0.469200	0.459100
Ag61	Ag6	0.191430	0.427000	0.397160
N131	N13	0.561100	0.521490	0.357070
N141	N14	0.344800	0.500210	0.325260
N151	N15	0.498000	0.712020	0.034300
N161	N16	0.083200	0.374680	0.501720
N171	N17	0.875800	0.394230	0.530540
N181	N18	0.089000	0.154650	0.787980
C331	C33	0.288200	0.534270	0.255300
H251	H25	0.146800	0.529500	0.221400
C341	C34	0.466500	0.577800	0.239200
C351	C35	0.634400	0.567100	0.305500
H261	H26	0.779700	0.589000	0.312800
C361	C36	0.308600	0.675100	0.043900
H271	H27	0.179300	0.679400	0.003900
C371	C37	0.291800	0.631300	0.108800
H281	H28	0.154200	0.606300	0.111900
C381	C38	0.476000	0.623890	0.169600
C391	C39	0.672100	0.662100	0.160300
H291	H29	0.803600	0.658800	0.199600
C401	C40	0.674200	0.704800	0.093700
H301	H30	0.809100	0.730800	0.089500
C411	C41	0.827600	0.352500	0.590600
H311	H31	0.693000	0.354500	0.620700
C421	C42	0.001400	0.305730	0.603000
C431	C43	0.160700	0.322140	0.544500
H321	H32	0.300800	0.299400	0.536800
C441	C44	0.903400	0.194700	0.783600
H331	H33	0.792500	0.189200	0.823500
C451	C45	0.865300	0.243000	0.724700
H341	H34	0.731000	0.269900	0.724600
C461	C46	0.025600	0.252750	0.664300
C471	C47	0.215300	0.209800	0.668500
H351	H35	0.328100	0.213300	0.628900
C481	C48	0.239200	0.162600	0.729500
H361	H36	0.369300	0.134100	0.730300
Ag71	Ag7	0.288210	0.969200	0.040900
Ag81	Ag8	0.808570	0.927000	0.102840
N191	N19	0.438900	0.021490	0.142930
N201	N20	0.655200	0.000210	0.174740
N211	N21	0.502000	0.212020	0.465700
N221	N22	0.916800	0.874680	0.998280
N231	N23	0.124200	0.894230	0.969460
N241	N24	0.911000	0.654650	0.712020
C491	C49	0.711800	0.034270	0.244700
H371	H37	0.853200	0.029500	0.278600
C501	C50	0.533500	0.077800	0.260800
C511	C51	0.365600	0.067100	0.194500
H381	H38	0.220300	0.089000	0.187200
C521	C52	0.691400	0.175100	0.456100
H391	H39	0.820700	0.179400	0.496100
C531	C53	0.708200	0.131300	0.391200
H401	H40	0.845800	0.106300	0.388100
C541	C54	0.524000	0.123890	0.330400
C551	C55	0.327900	0.162100	0.339700
H411	H41	0.196400	0.158800	0.300400
C561	C56	0.325800	0.204800	0.406300
H421	H42	0.190900	0.230800	0.410500
C571	C57	0.172400	0.852500	0.909400
H431	H43	0.307000	0.854500	0.879300
C581	C58	0.998600	0.805730	0.897000
C591	C59	0.839300	0.822140	0.955500
H441	H44	0.699200	0.799400	0.963200
C601	C60	0.096600	0.694700	0.716400
H451	H45	0.207500	0.689200	0.676500
C611	C61	0.134700	0.743000	0.775300
H461	H46	0.269000	0.769900	0.775400
C621	C62	0.974400	0.752750	0.835700
C631	C63	0.784700	0.709800	0.831500
H471	H47	0.671900	0.713300	0.871100
C641	C64	0.760800	0.662600	0.770500
H481	H48	0.630700	0.634100	0.769700
