data_ZIWTII_clean_PM
_symmetry_space_group_name_H-M	'P1'
_cell_length_a	10.578000
_cell_length_b	10.578000
_cell_length_c	10.578000
_cell_angle_alpha	90.000000
_cell_angle_beta	90.000000
_cell_angle_gamma	90.000000
_symmetry_Int_Tables_number 1

loop_
_symmetry_equiv_pos_as_xyz
'x,y,z'

loop_
_atom_site_label
_atom_site_type_symbol
_atom_site_fract_x
_atom_site_fract_y
_atom_site_fract_z
N11	N1	0.849900	0.950900	0.761800
C11	C1	0.768600	0.866300	0.683500
C21	C2	0.971400	0.884800	0.785900
H11	H1	0.811000	0.846000	0.605000
H21	H2	0.690000	0.909000	0.675000
H31	H3	0.016000	0.877000	0.700000
H41	H4	0.028000	0.940000	0.842000
N21	N2	0.650100	0.049100	0.261800
C31	C3	0.731400	0.133700	0.183500
C41	C4	0.528600	0.115200	0.285900
H51	H5	0.689000	0.154000	0.105000
H61	H6	0.810000	0.091000	0.175000
H71	H7	0.484000	0.123000	0.200000
H81	H8	0.472000	0.060000	0.342000
N31	N3	0.150100	0.450900	0.738200
C51	C5	0.231400	0.366300	0.816500
C61	C6	0.028600	0.384800	0.714100
H91	H9	0.189000	0.346000	0.895000
H101	H10	0.310000	0.409000	0.825000
H111	H11	0.984000	0.377000	0.800000
H121	H12	0.972000	0.440000	0.658000
N41	N4	0.349900	0.549100	0.238200
C71	C7	0.268600	0.633700	0.316500
C81	C8	0.471400	0.615200	0.214100
H131	H13	0.311000	0.654000	0.395000
H141	H14	0.190000	0.591000	0.325000
H151	H15	0.516000	0.623000	0.300000
H161	H16	0.528000	0.560000	0.158000
N51	N5	0.761800	0.849900	0.950900
C91	C9	0.683500	0.768600	0.866300
C101	C10	0.785900	0.971400	0.884800
H171	H17	0.605000	0.811000	0.846000
H181	H18	0.675000	0.690000	0.909000
H191	H19	0.700000	0.016000	0.877000
H201	H20	0.842000	0.028000	0.940000
N61	N6	0.261800	0.650100	0.049100
C111	C11	0.183500	0.731400	0.133700
C121	C12	0.285900	0.528600	0.115200
H211	H21	0.105000	0.689000	0.154000
H221	H22	0.175000	0.810000	0.091000
H231	H23	0.200000	0.484000	0.123000
H241	H24	0.342000	0.472000	0.060000
N71	N7	0.738200	0.150100	0.450900
C131	C13	0.816500	0.231400	0.366300
C141	C14	0.714100	0.028600	0.384800
H251	H25	0.895000	0.189000	0.346000
H261	H26	0.825000	0.310000	0.409000
H271	H27	0.800000	0.984000	0.377000
H281	H28	0.658000	0.972000	0.440000
N81	N8	0.238200	0.349900	0.549100
C151	C15	0.316500	0.268600	0.633700
C161	C16	0.214100	0.471400	0.615200
H291	H29	0.395000	0.311000	0.654000
H301	H30	0.325000	0.190000	0.591000
H311	H31	0.300000	0.516000	0.623000
H321	H32	0.158000	0.528000	0.560000
N91	N9	0.950900	0.761800	0.849900
C171	C17	0.866300	0.683500	0.768600
C181	C18	0.884800	0.785900	0.971400
H331	H33	0.846000	0.605000	0.811000
H341	H34	0.909000	0.675000	0.690000
H351	H35	0.877000	0.700000	0.016000
H361	H36	0.940000	0.842000	0.028000
N101	N10	0.049100	0.261800	0.650100
C191	C19	0.133700	0.183500	0.731400
C201	C20	0.115200	0.285900	0.528600
H371	H37	0.154000	0.105000	0.689000
H381	H38	0.091000	0.175000	0.810000
H391	H39	0.123000	0.200000	0.484000
H401	H40	0.060000	0.342000	0.472000
N111	N11	0.450900	0.738200	0.150100
C211	C21	0.366300	0.816500	0.231400
C221	C22	0.384800	0.714100	0.028600
H411	H41	0.346000	0.895000	0.189000
H421	H42	0.409000	0.825000	0.310000
H431	H43	0.377000	0.800000	0.984000
H441	H44	0.440000	0.658000	0.972000
N121	N12	0.549100	0.238200	0.349900
C231	C23	0.633700	0.316500	0.268600
C241	C24	0.615200	0.214100	0.471400
H451	H45	0.654000	0.395000	0.311000
H461	H46	0.591000	0.325000	0.190000
H471	H47	0.623000	0.300000	0.516000
H481	H48	0.560000	0.158000	0.528000
Ag11	Ag1	0.870080	0.129920	0.629920
Ag21	Ag2	0.629920	0.870080	0.129920
Ag31	Ag3	0.129920	0.629920	0.870080
Ag41	Ag4	0.370080	0.370080	0.370080
N131	N13	0.745300	0.745300	0.745300
N141	N14	0.754700	0.254700	0.245300
N151	N15	0.254700	0.245300	0.754700
N161	N16	0.245300	0.754700	0.254700
