data_ZIYPUU_clean_PM
_symmetry_space_group_name_H-M	'P1'
_cell_length_a	9.599600
_cell_length_b	9.763800
_cell_length_c	9.866000
_cell_angle_alpha	88.150000
_cell_angle_beta	77.431000
_cell_angle_gamma	64.293000
_symmetry_Int_Tables_number 1

loop_
_symmetry_equiv_pos_as_xyz
'x,y,z'

loop_
_atom_site_label
_atom_site_type_symbol
_atom_site_fract_x
_atom_site_fract_y
_atom_site_fract_z
Cd11	Cd1	0.951940	0.226670	0.028310
Cd21	Cd2	0.048060	0.773330	0.971690
H11	H1	0.415600	0.131200	0.434500
H21	H2	0.766700	0.672100	0.114400
H31	H3	0.206400	0.416700	0.306100
H41	H4	0.629500	0.005500	0.540900
H51	H5	0.716800	0.908000	0.813300
H61	H6	0.584400	0.868800	0.565500
H71	H7	0.370500	0.994500	0.459100
H81	H8	0.793600	0.583300	0.693900
H91	H9	0.479800	0.168300	0.170400
H101	H10	0.773300	0.471000	0.501400
H111	H11	0.226700	0.529000	0.498600
H121	H12	0.520200	0.831700	0.829600
H131	H13	0.845300	0.956800	0.310800
H141	H14	0.154700	0.043200	0.689200
H151	H15	0.233300	0.327900	0.885600
H161	H16	0.283200	0.092000	0.186700
C11	C1	0.370300	0.055000	0.111500
C21	C2	0.197500	0.105700	0.713000
C31	C3	0.629700	0.945000	0.888500
C41	C4	0.416100	0.052000	0.496500
C51	C5	0.122500	0.450700	0.384000
C61	C6	0.012300	0.565700	0.617900
C71	C7	0.864600	0.482900	0.500100
C81	C8	0.987700	0.434300	0.382100
C91	C9	0.802500	0.894300	0.287000
C101	C10	0.242200	0.259000	0.817500
C111	C11	0.025300	0.636200	0.743900
C121	C12	0.487800	0.100400	0.101800
C131	C13	0.877500	0.549300	0.616000
C141	C14	0.974700	0.363800	0.256100
C151	C15	0.620700	0.045700	0.989500
C161	C16	0.247700	0.909500	0.015700
C171	C17	0.135400	0.517100	0.499900
C181	C18	0.512200	0.899600	0.898200
C191	C19	0.757800	0.741000	0.182500
C201	C20	0.583900	0.948000	0.503500
C211	C21	0.752300	0.090500	0.984300
C221	C22	0.379300	0.954300	0.010500
N11	N1	0.648400	0.780300	0.299400
N21	N2	0.854700	0.807900	0.169500
N31	N3	0.351600	0.219700	0.700600
N41	N4	0.320000	0.121500	0.634100
N51	N5	0.680000	0.878500	0.365900
N61	N6	0.145300	0.192100	0.830500
O11	O1	0.057600	0.364500	0.139500
O21	O2	0.120600	0.695400	0.730900
O31	O3	0.885400	0.015900	0.903300
O41	O4	0.942400	0.635500	0.860500
O51	O5	0.727700	0.199200	0.064300
O61	O6	0.114600	0.984100	0.096700
O71	O7	0.879400	0.304600	0.269100
O81	O8	0.272300	0.800800	0.935700
