data_ZNGLUD01_clean_PM
_symmetry_space_group_name_H-M	'P1'
_cell_length_a	7.177000
_cell_length_b	10.396000
_cell_length_c	11.121000
_cell_angle_alpha	90.000000
_cell_angle_beta	90.000000
_cell_angle_gamma	90.000000
_symmetry_Int_Tables_number 1

loop_
_symmetry_equiv_pos_as_xyz
'x,y,z'

loop_
_atom_site_label
_atom_site_type_symbol
_atom_site_fract_x
_atom_site_fract_y
_atom_site_fract_z
Zn11	Zn1	0.377440	0.070910	0.040910
Zn21	Zn2	0.122560	0.929090	0.540910
Zn31	Zn3	0.622560	0.570910	0.459090
Zn41	Zn4	0.877440	0.429090	0.959090
H11	H1	0.787900	0.123600	0.819400
H21	H2	0.651900	0.003200	0.802000
H31	H3	0.620300	0.240300	0.674300
H41	H4	0.487700	0.119200	0.651300
H51	H5	0.341600	0.277100	0.772300
H61	H6	0.313000	0.041000	0.816000
H71	H7	0.199000	0.129000	0.866000
H81	H8	0.712100	0.876400	0.319400
H91	H9	0.848100	0.996800	0.302000
H101	H10	0.879700	0.759700	0.174300
H111	H11	0.012300	0.880800	0.151300
H121	H12	0.158400	0.722900	0.272300
H131	H13	0.187000	0.959000	0.316000
H141	H14	0.301000	0.871000	0.366000
H151	H15	0.212100	0.623600	0.680600
H161	H16	0.348100	0.503200	0.698000
H171	H17	0.379700	0.740300	0.825700
H181	H18	0.512300	0.619200	0.848700
H191	H19	0.658400	0.777100	0.727700
H201	H20	0.687000	0.541000	0.684000
H211	H21	0.801000	0.629000	0.634000
H221	H22	0.287900	0.376400	0.180600
H231	H23	0.151900	0.496800	0.198000
H241	H24	0.120300	0.259700	0.325700
H251	H25	0.987700	0.380800	0.348700
H261	H26	0.841600	0.222900	0.227700
H271	H27	0.813000	0.459000	0.184000
H281	H28	0.699000	0.371000	0.134000
C11	C1	0.837800	0.024600	0.661710
C21	C2	0.711200	0.076500	0.759910
C31	C3	0.560600	0.165200	0.713380
C41	C4	0.536500	0.282600	0.909420
C51	C5	0.428000	0.213400	0.810140
C61	C6	0.662200	0.975400	0.161710
C71	C7	0.788800	0.923500	0.259910
C81	C8	0.939400	0.834800	0.213380
C91	C9	0.963500	0.717400	0.409420
C101	C10	0.072000	0.786600	0.310140
C111	C11	0.162200	0.524600	0.838290
C121	C12	0.288800	0.576500	0.740090
C131	C13	0.439400	0.665200	0.786620
C141	C14	0.463500	0.782600	0.590580
C151	C15	0.572000	0.713400	0.689860
C161	C16	0.337800	0.475400	0.338290
C171	C17	0.211200	0.423500	0.240090
C181	C18	0.060600	0.334800	0.286620
C191	C19	0.036500	0.217400	0.090580
C201	C20	0.928000	0.286600	0.189860
N11	N1	0.314400	0.108520	0.860950
N21	N2	0.185600	0.891480	0.360950
N31	N3	0.685600	0.608520	0.639050
N41	N4	0.814400	0.391480	0.139050
O11	O1	0.983900	0.964480	0.696760
O21	O2	0.802400	0.038980	0.553210
O31	O3	0.520400	0.244910	0.015690
O41	O4	0.640000	0.373000	0.874860
O51	O5	0.516100	0.035520	0.196760
O61	O6	0.697600	0.961020	0.053210
O71	O7	0.979600	0.755090	0.515690
O81	O8	0.860000	0.627000	0.374860
O91	O9	0.016100	0.464480	0.803240
O101	O10	0.197600	0.538980	0.946790
O111	O11	0.479600	0.744910	0.484310
O121	O12	0.360000	0.873000	0.625140
O131	O13	0.483900	0.535520	0.303240
O141	O14	0.302400	0.461020	0.446790
O151	O15	0.020400	0.255090	0.984310
O161	O16	0.140000	0.127000	0.125140
