data_ZNGLUD_clean_PM
_symmetry_space_group_name_H-M	'P1'
_cell_length_a	7.220000
_cell_length_b	10.463000
_cell_length_c	11.190000
_cell_angle_alpha	90.000000
_cell_angle_beta	90.000000
_cell_angle_gamma	90.000000
_symmetry_Int_Tables_number 1

loop_
_symmetry_equiv_pos_as_xyz
'x,y,z'

loop_
_atom_site_label
_atom_site_type_symbol
_atom_site_fract_x
_atom_site_fract_y
_atom_site_fract_z
Zn11	Zn1	0.372100	0.678800	0.209200
Zn21	Zn2	0.872100	0.321200	0.290800
Zn31	Zn3	0.127900	0.178800	0.790800
Zn41	Zn4	0.627900	0.821200	0.709200
H11	H1	0.401000	0.460000	0.476000
H21	H2	0.129000	0.503000	0.574000
H31	H3	0.248000	0.629000	0.599000
H41	H4	0.950000	0.632000	0.427000
H51	H5	0.120000	0.757000	0.456000
H61	H6	0.549000	0.632000	0.379000
H71	H7	0.398000	0.709000	0.426000
H81	H8	0.901000	0.540000	0.024000
H91	H9	0.629000	0.497000	0.926000
H101	H10	0.748000	0.371000	0.901000
H111	H11	0.450000	0.368000	0.073000
H121	H12	0.620000	0.243000	0.044000
H131	H13	0.049000	0.368000	0.121000
H141	H14	0.898000	0.291000	0.074000
H151	H15	0.099000	0.960000	0.524000
H161	H16	0.371000	0.003000	0.426000
H171	H17	0.252000	0.129000	0.401000
H181	H18	0.550000	0.132000	0.573000
H191	H19	0.380000	0.257000	0.544000
H201	H20	0.951000	0.132000	0.621000
H211	H21	0.102000	0.209000	0.574000
H221	H22	0.599000	0.040000	0.976000
H231	H23	0.871000	0.997000	0.074000
H241	H24	0.752000	0.871000	0.099000
H251	H25	0.050000	0.868000	0.927000
H261	H26	0.880000	0.743000	0.956000
H271	H27	0.451000	0.868000	0.879000
H281	H28	0.602000	0.791000	0.926000
C11	C1	0.210200	0.469700	0.339900
C21	C2	0.318600	0.537700	0.439500
C31	C3	0.187200	0.584300	0.535900
C41	C4	0.036100	0.672500	0.490400
C51	C5	0.912100	0.724800	0.589000
C61	C6	0.710200	0.530300	0.160100
C71	C7	0.818600	0.462300	0.060500
C81	C8	0.687200	0.415700	0.964100
C91	C9	0.536100	0.327500	0.009600
C101	C10	0.412100	0.275200	0.911000
C111	C11	0.289800	0.969700	0.660100
C121	C12	0.181400	0.037700	0.560500
C131	C13	0.312800	0.084300	0.464100
C141	C14	0.463900	0.172500	0.509600
C151	C15	0.587900	0.224800	0.411000
C161	C16	0.789800	0.030300	0.839900
C171	C17	0.681400	0.962300	0.939500
C181	C18	0.812800	0.915700	0.035900
C191	C19	0.963900	0.827500	0.990400
C201	C20	0.087900	0.775200	0.089000
N11	N1	0.432600	0.641900	0.389800
N21	N2	0.932600	0.358100	0.110200
N31	N3	0.067400	0.141900	0.610200
N41	N4	0.567400	0.858100	0.889800
O11	O1	0.226400	0.506500	0.234600
O21	O2	0.107100	0.378800	0.374600
O31	O3	0.765800	0.784700	0.554200
O41	O4	0.944600	0.708600	0.697200
O51	O5	0.726400	0.493500	0.265400
O61	O6	0.607100	0.621200	0.125400
O71	O7	0.265800	0.215300	0.945800
O81	O8	0.444600	0.291400	0.802800
O91	O9	0.273600	0.006500	0.765400
O101	O10	0.392900	0.878800	0.625400
O111	O11	0.734200	0.284700	0.445800
O121	O12	0.555400	0.208600	0.302800
O131	O13	0.773600	0.993500	0.734600
O141	O14	0.892900	0.121200	0.874600
O151	O15	0.234200	0.715300	0.054200
O161	O16	0.055400	0.791400	0.197200
