data_ZOBYOG_clean_PM
_symmetry_space_group_name_H-M	'P1'
_cell_length_a	20.797000
_cell_length_b	20.797000
_cell_length_c	16.012000
_cell_angle_alpha	90.000000
_cell_angle_beta	90.000000
_cell_angle_gamma	90.000000
_symmetry_Int_Tables_number 1

loop_
_symmetry_equiv_pos_as_xyz
'x,y,z'

loop_
_atom_site_label
_atom_site_type_symbol
_atom_site_fract_x
_atom_site_fract_y
_atom_site_fract_z
C11	C1	0.396400	0.637500	0.488900
C21	C2	0.358000	0.619900	0.561400
C31	C3	0.319700	0.656100	0.613900
C41	C4	0.308000	0.725400	0.616500
C51	C5	0.317400	0.557500	0.655700
C61	C6	0.301000	0.500200	0.704100
C71	C7	0.235700	0.484200	0.717400
H11	H1	0.204300	0.511400	0.696200
C81	C8	0.216600	0.430600	0.760000
H21	H2	0.173100	0.422800	0.768600
C91	C9	0.261300	0.388500	0.790100
C101	C10	0.326900	0.401700	0.780100
C111	C11	0.347300	0.460200	0.735000
H31	H3	0.390700	0.469500	0.727800
C121	C12	0.372100	0.361000	0.810500
H41	H4	0.415700	0.370400	0.808000
C131	C13	0.349300	0.304500	0.845700
H51	H5	0.379100	0.272700	0.858500
C141	C14	0.285500	0.292200	0.863000
H61	H6	0.274200	0.257400	0.896500
C151	C15	0.240400	0.330200	0.831600
H71	H7	0.197000	0.319900	0.836000
N11	N1	0.357000	0.558200	0.588800
N21	N2	0.294200	0.616300	0.672900
O11	O1	0.425800	0.593900	0.451200
O21	O2	0.397300	0.697000	0.464000
O31	O3	0.330200	0.761100	0.560100
O41	O4	0.274200	0.745200	0.676800
Zn11	Zn1	0.415300	0.500120	0.518990
C161	C16	0.896400	0.137500	0.988900
C171	C17	0.858000	0.119900	0.061400
C181	C18	0.819700	0.156100	0.113900
C191	C19	0.808000	0.225400	0.116500
C201	C20	0.817400	0.057500	0.155700
C211	C21	0.801000	0.000200	0.204100
C221	C22	0.735700	0.984200	0.217400
H81	H8	0.704300	0.011400	0.196200
C231	C23	0.716600	0.930600	0.260000
H91	H9	0.673100	0.922800	0.268600
C241	C24	0.761300	0.888500	0.290100
C251	C25	0.826900	0.901700	0.280100
C261	C26	0.847300	0.960200	0.235000
H101	H10	0.890700	0.969500	0.227800
C271	C27	0.872100	0.861000	0.310500
H111	H11	0.915700	0.870400	0.308000
C281	C28	0.849300	0.804500	0.345700
H121	H12	0.879100	0.772700	0.358500
C291	C29	0.785500	0.792200	0.363000
H131	H13	0.774200	0.757400	0.396500
C301	C30	0.740400	0.830200	0.331600
H141	H14	0.697000	0.819900	0.336000
N31	N3	0.857000	0.058200	0.088800
N41	N4	0.794200	0.116300	0.172900
O51	O5	0.925800	0.093900	0.951200
O61	O6	0.897300	0.197000	0.964000
O71	O7	0.830200	0.261100	0.060100
O81	O8	0.774200	0.245200	0.176800
Zn21	Zn2	0.915300	0.000120	0.018990
C311	C31	0.103600	0.362500	0.988900
C321	C32	0.142000	0.380100	0.061400
C331	C33	0.180300	0.343900	0.113900
C341	C34	0.192000	0.274600	0.116500
C351	C35	0.182600	0.442500	0.155700
C361	C36	0.199000	0.499800	0.204100
C371	C37	0.264300	0.515800	0.217400
H151	H15	0.295700	0.488600	0.196200
C381	C38	0.283400	0.569400	0.260000
H161	H16	0.326900	0.577200	0.268600
C391	C39	0.238700	0.611500	0.290100
C401	C40	0.173100	0.598300	0.280100
C411	C41	0.152700	0.539800	0.235000
H171	H17	0.109300	0.530500	0.227800
C421	C42	0.127900	0.639000	0.310500
H181	H18	0.084300	0.629600	0.308000
C431	C43	0.150700	0.695500	0.345700
H191	H19	0.120900	0.727300	0.358500
C441	C44	0.214500	0.707800	0.363000
H201	H20	0.225800	0.742600	0.396500
C451	C45	0.259600	0.669800	0.331600
H211	H21	0.303000	0.680100	0.336000
N51	N5	0.143000	0.441800	0.088800
N61	N6	0.205800	0.383700	0.172900
O91	O9	0.074200	0.406100	0.951200
O101	O10	0.102700	0.303000	0.964000
O111	O11	0.169800	0.238900	0.060100
O121	O12	0.225800	0.254800	0.176800
Zn31	Zn3	0.084700	0.499880	0.018990
C461	C46	0.603600	0.862500	0.488900
C471	C47	0.642000	0.880100	0.561400
C481	C48	0.680300	0.843900	0.613900
C491	C49	0.692000	0.774600	0.616500
C501	C50	0.682600	0.942500	0.655700
C511	C51	0.699000	0.999800	0.704100
C521	C52	0.764300	0.015800	0.717400
H221	H22	0.795700	0.988600	0.696200
C531	C53	0.783400	0.069400	0.760000
H231	H23	0.826900	0.077200	0.768600
C541	C54	0.738700	0.111500	0.790100
C551	C55	0.673100	0.098300	0.780100
C561	C56	0.652700	0.039800	0.735000
H241	H24	0.609300	0.030500	0.727800
C571	C57	0.627900	0.139000	0.810500
H251	H25	0.584300	0.129600	0.808000
C581	C58	0.650700	0.195500	0.845700
H261	H26	0.620900	0.227300	0.858500
C591	C59	0.714500	0.207800	0.863000
H271	H27	0.725800	0.242600	0.896500
C601	C60	0.759600	0.169800	0.831600
H281	H28	0.803000	0.180100	0.836000
N71	N7	0.643000	0.941800	0.588800
N81	N8	0.705800	0.883700	0.672900
O131	O13	0.574200	0.906100	0.451200
O141	O14	0.602700	0.803000	0.464000
O151	O15	0.669800	0.738900	0.560100
O161	O16	0.725800	0.754800	0.676800
Zn41	Zn4	0.584700	0.999880	0.518990
C611	C61	0.112500	0.646400	0.738900
C621	C62	0.130100	0.608000	0.811400
C631	C63	0.093900	0.569700	0.863900
C641	C64	0.024600	0.558000	0.866500
C651	C65	0.192500	0.567400	0.905700
C661	C66	0.249800	0.551000	0.954100
C671	C67	0.265800	0.485700	0.967400
H291	H29	0.238600	0.454300	0.946200
C681	C68	0.319400	0.466600	0.010000
H301	H30	0.327200	0.423100	0.018600
C691	C69	0.361500	0.511300	0.040100
C701	C70	0.348300	0.576900	0.030100
C711	C71	0.289800	0.597300	0.985000
H311	H31	0.280500	0.640700	0.977800
C721	C72	0.389000	0.622100	0.060500
H321	H32	0.379600	0.665700	0.058000
C731	C73	0.445500	0.599300	0.095700
H331	H33	0.477300	0.629100	0.108500
C741	C74	0.457800	0.535500	0.113000
H341	H34	0.492600	0.524200	0.146500
C751	C75	0.419800	0.490400	0.081600
H351	H35	0.430100	0.447000	0.086000
N91	N9	0.191800	0.607000	0.838800
N101	N10	0.133700	0.544200	0.922900
O171	O17	0.156100	0.675800	0.701200
O181	O18	0.053000	0.647300	0.714000
O191	O19	0.988900	0.580200	0.810100
O201	O20	0.004800	0.524200	0.926800
Zn51	Zn5	0.249880	0.665300	0.768990
C761	C76	0.612500	0.146400	0.238900
C771	C77	0.630100	0.108000	0.311400
C781	C78	0.593900	0.069700	0.363900
C791	C79	0.524600	0.058000	0.366500
C801	C80	0.692500	0.067400	0.405700
C811	C81	0.749800	0.051000	0.454100
C821	C82	0.765800	0.985700	0.467400
H361	H36	0.738600	0.954300	0.446200
C831	C83	0.819400	0.966600	0.510000
H371	H37	0.827200	0.923100	0.518600
C841	C84	0.861500	0.011300	0.540100
C851	C85	0.848300	0.076900	0.530100
C861	C86	0.789800	0.097300	0.485000
H381	H38	0.780500	0.140700	0.477800
C871	C87	0.889000	0.122100	0.560500
H391	H39	0.879600	0.165700	0.558000
C881	C88	0.945500	0.099300	0.595700
H401	H40	0.977300	0.129100	0.608500
C891	C89	0.957800	0.035500	0.613000
H411	H41	0.992600	0.024200	0.646500
C901	C90	0.919800	0.990400	0.581600
H421	H42	0.930100	0.947000	0.586000
N111	N11	0.691800	0.107000	0.338800
N121	N12	0.633700	0.044200	0.422900
O211	O21	0.656100	0.175800	0.201200
O221	O22	0.553000	0.147300	0.214000
O231	O23	0.488900	0.080200	0.310100
O241	O24	0.504800	0.024200	0.426800
Zn61	Zn6	0.749880	0.165300	0.268990
C911	C91	0.387500	0.353600	0.238900
C921	C92	0.369900	0.392000	0.311400
C931	C93	0.406100	0.430300	0.363900
C941	C94	0.475400	0.442000	0.366500
C951	C95	0.307500	0.432600	0.405700
C961	C96	0.250200	0.449000	0.454100
C971	C97	0.234200	0.514300	0.467400
H431	H43	0.261400	0.545700	0.446200
C981	C98	0.180600	0.533400	0.510000
H441	H44	0.172800	0.576900	0.518600
C991	C99	0.138500	0.488700	0.540100
C1001	C100	0.151700	0.423100	0.530100
C1011	C101	0.210200	0.402700	0.485000
H451	H45	0.219500	0.359300	0.477800
C1021	C102	0.111000	0.377900	0.560500
H461	H46	0.120400	0.334300	0.558000
C1031	C103	0.054500	0.400700	0.595700
H471	H47	0.022700	0.370900	0.608500
C1041	C104	0.042200	0.464500	0.613000
H481	H48	0.007400	0.475800	0.646500
C1051	C105	0.080200	0.509600	0.581600
H491	H49	0.069900	0.553000	0.586000
N131	N13	0.308200	0.393000	0.338800
N141	N14	0.366300	0.455800	0.422900
O251	O25	0.343900	0.324200	0.201200
O261	O26	0.447000	0.352700	0.214000
O271	O27	0.511100	0.419800	0.310100
O281	O28	0.495200	0.475800	0.426800
Zn71	Zn7	0.250120	0.334700	0.268990
C1061	C106	0.887500	0.853600	0.738900
C1071	C107	0.869900	0.892000	0.811400
C1081	C108	0.906100	0.930300	0.863900
C1091	C109	0.975400	0.942000	0.866500
C1101	C110	0.807500	0.932600	0.905700
C1111	C111	0.750200	0.949000	0.954100
C1121	C112	0.734200	0.014300	0.967400
H501	H50	0.761400	0.045700	0.946200
C1131	C113	0.680600	0.033400	0.010000
H511	H51	0.672800	0.076900	0.018600
C1141	C114	0.638500	0.988700	0.040100
C1151	C115	0.651700	0.923100	0.030100
C1161	C116	0.710200	0.902700	0.985000
H521	H52	0.719500	0.859300	0.977800
C1171	C117	0.611000	0.877900	0.060500
H531	H53	0.620400	0.834300	0.058000
C1181	C118	0.554500	0.900700	0.095700
H541	H54	0.522700	0.870900	0.108500
C1191	C119	0.542200	0.964500	0.113000
H551	H55	0.507400	0.975800	0.146500
C1201	C120	0.580200	0.009600	0.081600
H561	H56	0.569900	0.053000	0.086000
N151	N15	0.808200	0.893000	0.838800
N161	N16	0.866300	0.955800	0.922900
O291	O29	0.843900	0.824200	0.701200
O301	O30	0.947000	0.852700	0.714000
O311	O31	0.011100	0.919800	0.810100
O321	O32	0.995200	0.975800	0.926800
Zn81	Zn8	0.750120	0.834700	0.768990
C1211	C121	0.603600	0.362500	0.511100
C1221	C122	0.642000	0.380100	0.438600
C1231	C123	0.680300	0.343900	0.386100
C1241	C124	0.692000	0.274600	0.383500
C1251	C125	0.682600	0.442500	0.344300
C1261	C126	0.699000	0.499800	0.295900
C1271	C127	0.764300	0.515800	0.282600
H571	H57	0.795700	0.488600	0.303800
C1281	C128	0.783400	0.569400	0.240000
H581	H58	0.826900	0.577200	0.231400
C1291	C129	0.738700	0.611500	0.209900
C1301	C130	0.673100	0.598300	0.219900
C1311	C131	0.652700	0.539800	0.265000
H591	H59	0.609300	0.530500	0.272200
C1321	C132	0.627900	0.639000	0.189500
H601	H60	0.584300	0.629600	0.192000
C1331	C133	0.650700	0.695500	0.154300
H611	H61	0.620900	0.727300	0.141500
C1341	C134	0.714500	0.707800	0.137000
H621	H62	0.725800	0.742600	0.103500
C1351	C135	0.759600	0.669800	0.168400
H631	H63	0.803000	0.680100	0.164000
N171	N17	0.643000	0.441800	0.411200
N181	N18	0.705800	0.383700	0.327100
O331	O33	0.574200	0.406100	0.548800
O341	O34	0.602700	0.303000	0.536000
O351	O35	0.669800	0.238900	0.439900
O361	O36	0.725800	0.254800	0.323200
Zn91	Zn9	0.584700	0.499880	0.481010
C1361	C136	0.103600	0.862500	0.011100
C1371	C137	0.142000	0.880100	0.938600
C1381	C138	0.180300	0.843900	0.886100
C1391	C139	0.192000	0.774600	0.883500
C1401	C140	0.182600	0.942500	0.844300
C1411	C141	0.199000	0.999800	0.795900
C1421	C142	0.264300	0.015800	0.782600
H641	H64	0.295700	0.988600	0.803800
C1431	C143	0.283400	0.069400	0.740000
H651	H65	0.326900	0.077200	0.731400
C1441	C144	0.238700	0.111500	0.709900
C1451	C145	0.173100	0.098300	0.719900
C1461	C146	0.152700	0.039800	0.765000
H661	H66	0.109300	0.030500	0.772200
C1471	C147	0.127900	0.139000	0.689500
H671	H67	0.084300	0.129600	0.692000
C1481	C148	0.150700	0.195500	0.654300
H681	H68	0.120900	0.227300	0.641500
C1491	C149	0.214500	0.207800	0.637000
H691	H69	0.225800	0.242600	0.603500
C1501	C150	0.259600	0.169800	0.668400
H701	H70	0.303000	0.180100	0.664000
N191	N19	0.143000	0.941800	0.911200
N201	N20	0.205800	0.883700	0.827100
O371	O37	0.074200	0.906100	0.048800
O381	O38	0.102700	0.803000	0.036000
O391	O39	0.169800	0.738900	0.939900
O401	O40	0.225800	0.754800	0.823200
Zn101	Zn10	0.084700	0.999880	0.981010
C1511	C151	0.896400	0.637500	0.011100
C1521	C152	0.858000	0.619900	0.938600
C1531	C153	0.819700	0.656100	0.886100
C1541	C154	0.808000	0.725400	0.883500
C1551	C155	0.817400	0.557500	0.844300
C1561	C156	0.801000	0.500200	0.795900
C1571	C157	0.735700	0.484200	0.782600
H711	H71	0.704300	0.511400	0.803800
C1581	C158	0.716600	0.430600	0.740000
H721	H72	0.673100	0.422800	0.731400
C1591	C159	0.761300	0.388500	0.709900
C1601	C160	0.826900	0.401700	0.719900
C1611	C161	0.847300	0.460200	0.765000
H731	H73	0.890700	0.469500	0.772200
C1621	C162	0.872100	0.361000	0.689500
H741	H74	0.915700	0.370400	0.692000
C1631	C163	0.849300	0.304500	0.654300
H751	H75	0.879100	0.272700	0.641500
C1641	C164	0.785500	0.292200	0.637000
H761	H76	0.774200	0.257400	0.603500
C1651	C165	0.740400	0.330200	0.668400
H771	H77	0.697000	0.319900	0.664000
N211	N21	0.857000	0.558200	0.911200
N221	N22	0.794200	0.616300	0.827100
O411	O41	0.925800	0.593900	0.048800
O421	O42	0.897300	0.697000	0.036000
O431	O43	0.830200	0.761100	0.939900
O441	O44	0.774200	0.745200	0.823200
Zn111	Zn11	0.915300	0.500120	0.981010
C1661	C166	0.396400	0.137500	0.511100
C1671	C167	0.358000	0.119900	0.438600
C1681	C168	0.319700	0.156100	0.386100
C1691	C169	0.308000	0.225400	0.383500
C1701	C170	0.317400	0.057500	0.344300
C1711	C171	0.301000	0.000200	0.295900
C1721	C172	0.235700	0.984200	0.282600
H781	H78	0.204300	0.011400	0.303800
C1731	C173	0.216600	0.930600	0.240000
H791	H79	0.173100	0.922800	0.231400
C1741	C174	0.261300	0.888500	0.209900
C1751	C175	0.326900	0.901700	0.219900
C1761	C176	0.347300	0.960200	0.265000
H801	H80	0.390700	0.969500	0.272200
C1771	C177	0.372100	0.861000	0.189500
H811	H81	0.415700	0.870400	0.192000
C1781	C178	0.349300	0.804500	0.154300
H821	H82	0.379100	0.772700	0.141500
C1791	C179	0.285500	0.792200	0.137000
H831	H83	0.274200	0.757400	0.103500
C1801	C180	0.240400	0.830200	0.168400
H841	H84	0.197000	0.819900	0.164000
N231	N23	0.357000	0.058200	0.411200
N241	N24	0.294200	0.116300	0.327100
O451	O45	0.425800	0.093900	0.548800
O461	O46	0.397300	0.197000	0.536000
O471	O47	0.330200	0.261100	0.439900
O481	O48	0.274200	0.245200	0.323200
Zn121	Zn12	0.415300	0.000120	0.481010
C1811	C181	0.887500	0.353600	0.261100
C1821	C182	0.869900	0.392000	0.188600
C1831	C183	0.906100	0.430300	0.136100
C1841	C184	0.975400	0.442000	0.133500
C1851	C185	0.807500	0.432600	0.094300
C1861	C186	0.750200	0.449000	0.045900
C1871	C187	0.734200	0.514300	0.032600
H851	H85	0.761400	0.545700	0.053800
C1881	C188	0.680600	0.533400	0.990000
H861	H86	0.672800	0.576900	0.981400
C1891	C189	0.638500	0.488700	0.959900
C1901	C190	0.651700	0.423100	0.969900
C1911	C191	0.710200	0.402700	0.015000
H871	H87	0.719500	0.359300	0.022200
C1921	C192	0.611000	0.377900	0.939500
H881	H88	0.620400	0.334300	0.942000
C1931	C193	0.554500	0.400700	0.904300
H891	H89	0.522700	0.370900	0.891500
C1941	C194	0.542200	0.464500	0.887000
H901	H90	0.507400	0.475800	0.853500
C1951	C195	0.580200	0.509600	0.918400
H911	H91	0.569900	0.553000	0.914000
N251	N25	0.808200	0.393000	0.161200
N261	N26	0.866300	0.455800	0.077100
O491	O49	0.843900	0.324200	0.298800
O501	O50	0.947000	0.352700	0.286000
O511	O51	0.011100	0.419800	0.189900
O521	O52	0.995200	0.475800	0.073200
Zn131	Zn13	0.750120	0.334700	0.231010
C1961	C196	0.387500	0.853600	0.761100
C1971	C197	0.369900	0.892000	0.688600
C1981	C198	0.406100	0.930300	0.636100
C1991	C199	0.475400	0.942000	0.633500
C2001	C200	0.307500	0.932600	0.594300
C2011	C201	0.250200	0.949000	0.545900
C2021	C202	0.234200	0.014300	0.532600
H921	H92	0.261400	0.045700	0.553800
C2031	C203	0.180600	0.033400	0.490000
H931	H93	0.172800	0.076900	0.481400
C2041	C204	0.138500	0.988700	0.459900
C2051	C205	0.151700	0.923100	0.469900
C2061	C206	0.210200	0.902700	0.515000
H941	H94	0.219500	0.859300	0.522200
C2071	C207	0.111000	0.877900	0.439500
H951	H95	0.120400	0.834300	0.442000
C2081	C208	0.054500	0.900700	0.404300
H961	H96	0.022700	0.870900	0.391500
C2091	C209	0.042200	0.964500	0.387000
H971	H97	0.007400	0.975800	0.353500
C2101	C210	0.080200	0.009600	0.418400
H981	H98	0.069900	0.053000	0.414000
N271	N27	0.308200	0.893000	0.661200
N281	N28	0.366300	0.955800	0.577100
O531	O53	0.343900	0.824200	0.798800
O541	O54	0.447000	0.852700	0.786000
O551	O55	0.511100	0.919800	0.689900
O561	O56	0.495200	0.975800	0.573200
Zn141	Zn14	0.250120	0.834700	0.731010
C2111	C211	0.612500	0.646400	0.761100
C2121	C212	0.630100	0.608000	0.688600
C2131	C213	0.593900	0.569700	0.636100
C2141	C214	0.524600	0.558000	0.633500
C2151	C215	0.692500	0.567400	0.594300
C2161	C216	0.749800	0.551000	0.545900
C2171	C217	0.765800	0.485700	0.532600
H991	H99	0.738600	0.454300	0.553800
C2181	C218	0.819400	0.466600	0.490000
H1001	H100	0.827200	0.423100	0.481400
C2191	C219	0.861500	0.511300	0.459900
C2201	C220	0.848300	0.576900	0.469900
C2211	C221	0.789800	0.597300	0.515000
H1011	H101	0.780500	0.640700	0.522200
C2221	C222	0.889000	0.622100	0.439500
H1021	H102	0.879600	0.665700	0.442000
C2231	C223	0.945500	0.599300	0.404300
H1031	H103	0.977300	0.629100	0.391500
C2241	C224	0.957800	0.535500	0.387000
H1041	H104	0.992600	0.524200	0.353500
C2251	C225	0.919800	0.490400	0.418400
H1051	H105	0.930100	0.447000	0.414000
N291	N29	0.691800	0.607000	0.661200
N301	N30	0.633700	0.544200	0.577100
O571	O57	0.656100	0.675800	0.798800
O581	O58	0.553000	0.647300	0.786000
O591	O59	0.488900	0.580200	0.689900
O601	O60	0.504800	0.524200	0.573200
Zn151	Zn15	0.749880	0.665300	0.731010
C2261	C226	0.112500	0.146400	0.261100
C2271	C227	0.130100	0.108000	0.188600
C2281	C228	0.093900	0.069700	0.136100
C2291	C229	0.024600	0.058000	0.133500
C2301	C230	0.192500	0.067400	0.094300
C2311	C231	0.249800	0.051000	0.045900
C2321	C232	0.265800	0.985700	0.032600
H1061	H106	0.238600	0.954300	0.053800
C2331	C233	0.319400	0.966600	0.990000
H1071	H107	0.327200	0.923100	0.981400
C2341	C234	0.361500	0.011300	0.959900
C2351	C235	0.348300	0.076900	0.969900
C2361	C236	0.289800	0.097300	0.015000
H1081	H108	0.280500	0.140700	0.022200
C2371	C237	0.389000	0.122100	0.939500
H1091	H109	0.379600	0.165700	0.942000
C2381	C238	0.445500	0.099300	0.904300
H1101	H110	0.477300	0.129100	0.891500
C2391	C239	0.457800	0.035500	0.887000
H1111	H111	0.492600	0.024200	0.853500
C2401	C240	0.419800	0.990400	0.918400
H1121	H112	0.430100	0.947000	0.914000
N311	N31	0.191800	0.107000	0.161200
N321	N32	0.133700	0.044200	0.077100
O611	O61	0.156100	0.175800	0.298800
O621	O62	0.053000	0.147300	0.286000
O631	O63	0.988900	0.080200	0.189900
O641	O64	0.004800	0.024200	0.073200
Zn161	Zn16	0.249880	0.165300	0.231010
