data_ZOFZIF_clean_PM
_symmetry_space_group_name_H-M	'P1'
_cell_length_a	19.199900
_cell_length_b	19.199900
_cell_length_c	25.815000
_cell_angle_alpha	90.000000
_cell_angle_beta	90.000000
_cell_angle_gamma	90.000000
_symmetry_Int_Tables_number 1

loop_
_symmetry_equiv_pos_as_xyz
'x,y,z'

loop_
_atom_site_label
_atom_site_type_symbol
_atom_site_fract_x
_atom_site_fract_y
_atom_site_fract_z
Mn11	Mn1	0.273240	0.787190	0.983640
Mn21	Mn2	0.387540	0.809310	0.090780
O11	O1	0.156600	0.207600	0.409100
O21	O2	0.295500	0.871300	0.451200
O31	O3	0.209700	0.187900	0.484050
O41	O4	0.257000	0.905700	0.991150
O51	O5	0.291900	0.942400	0.518500
O61	O6	0.220000	0.208300	0.088130
O71	O7	0.285600	0.843300	0.059690
O81	O8	0.223700	0.159000	0.011500
C11	C1	0.264900	0.900500	0.038800
C21	C2	0.249000	0.962000	0.073800
C31	C3	0.241800	0.026800	0.052300
H11	H1	0.245400	0.032600	0.016700
C41	C4	0.229300	0.083500	0.083800
C51	C5	0.224000	0.154000	0.059000
C61	C6	0.222400	0.074500	0.136200
H21	H2	0.213400	0.112500	0.157600
C71	C7	0.229000	0.008500	0.157300
C81	C8	0.244400	0.952300	0.125900
H31	H3	0.251500	0.908400	0.140100
C91	C9	0.219700	0.997500	0.212400
C101	C10	0.229600	0.040500	0.253400
H41	H4	0.240800	0.087600	0.252100
C111	C11	0.190900	0.170900	0.439100
C121	C12	0.204700	0.084200	0.368200
H51	H5	0.185300	0.116500	0.345500
C131	C13	0.213000	0.100600	0.420800
C141	C14	0.225500	0.020400	0.350600
C151	C15	0.251300	0.969800	0.384100
H61	H6	0.264100	0.926200	0.371500
C161	C16	0.257900	0.985100	0.436500
C171	C17	0.239900	0.051700	0.454000
H71	H7	0.246200	0.063000	0.488700
C181	C18	0.284500	0.927900	0.472300
N11	N1	0.199000	0.936200	0.280700
N21	N2	0.200800	0.933800	0.231500
N31	N3	0.220100	0.002100	0.296100
Mn31	Mn3	0.726760	0.212810	0.983640
Mn41	Mn4	0.612460	0.190690	0.090780
O91	O9	0.843400	0.792400	0.409100
O101	O10	0.704500	0.128700	0.451200
O111	O11	0.790300	0.812100	0.484050
O121	O12	0.743000	0.094300	0.991150
O131	O13	0.708100	0.057600	0.518500
O141	O14	0.780000	0.791700	0.088130
O151	O15	0.714400	0.156700	0.059690
O161	O16	0.776300	0.841000	0.011500
C191	C19	0.735100	0.099500	0.038800
C201	C20	0.751000	0.038000	0.073800
C211	C21	0.758200	0.973200	0.052300
H81	H8	0.754600	0.967400	0.016700
C221	C22	0.770700	0.916500	0.083800
C231	C23	0.776000	0.846000	0.059000
C241	C24	0.777600	0.925500	0.136200
H91	H9	0.786600	0.887500	0.157600
C251	C25	0.771000	0.991500	0.157300
C261	C26	0.755600	0.047700	0.125900
H101	H10	0.748500	0.091600	0.140100
C271	C27	0.780300	0.002500	0.212400
C281	C28	0.770400	0.959500	0.253400
H111	H11	0.759200	0.912400	0.252100
C291	C29	0.809100	0.829100	0.439100
C301	C30	0.795300	0.915800	0.368200
H121	H12	0.814700	0.883500	0.345500
C311	C31	0.787000	0.899400	0.420800
C321	C32	0.774500	0.979600	0.350600
C331	C33	0.748700	0.030200	0.384100
H131	H13	0.735900	0.073800	0.371500
C341	C34	0.742100	0.014900	0.436500
C351	C35	0.760100	0.948300	0.454000
H141	H14	0.753800	0.937000	0.488700
C361	C36	0.715500	0.072100	0.472300
N41	N4	0.801000	0.063800	0.280700
N51	N5	0.799200	0.066200	0.231500
N61	N6	0.779900	0.997900	0.296100
Mn51	Mn5	0.787190	0.726760	0.016360
Mn61	Mn6	0.809310	0.612460	0.909220
O171	O17	0.207600	0.843400	0.590900
O181	O18	0.871300	0.704500	0.548800
O191	O19	0.187900	0.790300	0.515950
O201	O20	0.905700	0.743000	0.008850
O211	O21	0.942400	0.708100	0.481500
O221	O22	0.208300	0.780000	0.911870
O231	O23	0.843300	0.714400	0.940310
O241	O24	0.159000	0.776300	0.988500
C371	C37	0.900500	0.735100	0.961200
C381	C38	0.962000	0.751000	0.926200
C391	C39	0.026800	0.758200	0.947700
H151	H15	0.032600	0.754600	0.983300
C401	C40	0.083500	0.770700	0.916200
C411	C41	0.154000	0.776000	0.941000
C421	C42	0.074500	0.777600	0.863800
H161	H16	0.112500	0.786600	0.842400
C431	C43	0.008500	0.771000	0.842700
C441	C44	0.952300	0.755600	0.874100
H171	H17	0.908400	0.748500	0.859900
C451	C45	0.997500	0.780300	0.787600
C461	C46	0.040500	0.770400	0.746600
H181	H18	0.087600	0.759200	0.747900
C471	C47	0.170900	0.809100	0.560900
C481	C48	0.084200	0.795300	0.631800
H191	H19	0.116500	0.814700	0.654500
C491	C49	0.100600	0.787000	0.579200
C501	C50	0.020400	0.774500	0.649400
C511	C51	0.969800	0.748700	0.615900
H201	H20	0.926200	0.735900	0.628500
C521	C52	0.985100	0.742100	0.563500
C531	C53	0.051700	0.760100	0.546000
H211	H21	0.063000	0.753800	0.511300
C541	C54	0.927900	0.715500	0.527700
N71	N7	0.936200	0.801000	0.719300
N81	N8	0.933800	0.799200	0.768500
N91	N9	0.002100	0.779900	0.703900
Mn71	Mn7	0.212810	0.273240	0.016360
Mn81	Mn8	0.190690	0.387540	0.909220
O251	O25	0.792400	0.156600	0.590900
O261	O26	0.128700	0.295500	0.548800
O271	O27	0.812100	0.209700	0.515950
O281	O28	0.094300	0.257000	0.008850
O291	O29	0.057600	0.291900	0.481500
O301	O30	0.791700	0.220000	0.911870
O311	O31	0.156700	0.285600	0.940310
O321	O32	0.841000	0.223700	0.988500
C551	C55	0.099500	0.264900	0.961200
C561	C56	0.038000	0.249000	0.926200
C571	C57	0.973200	0.241800	0.947700
H221	H22	0.967400	0.245400	0.983300
C581	C58	0.916500	0.229300	0.916200
C591	C59	0.846000	0.224000	0.941000
C601	C60	0.925500	0.222400	0.863800
H231	H23	0.887500	0.213400	0.842400
C611	C61	0.991500	0.229000	0.842700
C621	C62	0.047700	0.244400	0.874100
H241	H24	0.091600	0.251500	0.859900
C631	C63	0.002500	0.219700	0.787600
C641	C64	0.959500	0.229600	0.746600
H251	H25	0.912400	0.240800	0.747900
C651	C65	0.829100	0.190900	0.560900
C661	C66	0.915800	0.204700	0.631800
H261	H26	0.883500	0.185300	0.654500
C671	C67	0.899400	0.213000	0.579200
C681	C68	0.979600	0.225500	0.649400
C691	C69	0.030200	0.251300	0.615900
H271	H27	0.073800	0.264100	0.628500
C701	C70	0.014900	0.257900	0.563500
C711	C71	0.948300	0.239900	0.546000
H281	H28	0.937000	0.246200	0.511300
C721	C72	0.072100	0.284500	0.527700
N101	N10	0.063800	0.199000	0.719300
N111	N11	0.066200	0.200800	0.768500
N121	N12	0.997900	0.220100	0.703900
Mn91	Mn9	0.226760	0.287190	0.516360
Mn101	Mn10	0.112460	0.309310	0.409220
O331	O33	0.343400	0.707600	0.090900
O341	O34	0.204500	0.371300	0.048800
O351	O35	0.290300	0.687900	0.015950
O361	O36	0.243000	0.405700	0.508850
O371	O37	0.208100	0.442400	0.981500
O381	O38	0.280000	0.708300	0.411870
O391	O39	0.214400	0.343300	0.440310
O401	O40	0.276300	0.659000	0.488500
C731	C73	0.235100	0.400500	0.461200
C741	C74	0.251000	0.462000	0.426200
C751	C75	0.258200	0.526800	0.447700
H291	H29	0.254600	0.532600	0.483300
C761	C76	0.270700	0.583500	0.416200
C771	C77	0.276000	0.654000	0.441000
C781	C78	0.277600	0.574500	0.363800
H301	H30	0.286600	0.612500	0.342400
C791	C79	0.271000	0.508500	0.342700
C801	C80	0.255600	0.452300	0.374100
H311	H31	0.248500	0.408400	0.359900
C811	C81	0.280300	0.497500	0.287600
C821	C82	0.270400	0.540500	0.246600
H321	H32	0.259200	0.587600	0.247900
C831	C83	0.309100	0.670900	0.060900
C841	C84	0.295300	0.584200	0.131800
H331	H33	0.314700	0.616500	0.154500
C851	C85	0.287000	0.600600	0.079200
C861	C86	0.274500	0.520400	0.149400
C871	C87	0.248700	0.469800	0.115900
H341	H34	0.235900	0.426200	0.128500
C881	C88	0.242100	0.485100	0.063500
C891	C89	0.260100	0.551700	0.046000
H351	H35	0.253800	0.563000	0.011300
C901	C90	0.215500	0.427900	0.027700
N131	N13	0.301000	0.436200	0.219300
N141	N14	0.299200	0.433800	0.268500
N151	N15	0.279900	0.502100	0.203900
Mn111	Mn11	0.773240	0.712810	0.516360
Mn121	Mn12	0.887540	0.690690	0.409220
O411	O41	0.656600	0.292400	0.090900
O421	O42	0.795500	0.628700	0.048800
O431	O43	0.709700	0.312100	0.015950
O441	O44	0.757000	0.594300	0.508850
O451	O45	0.791900	0.557600	0.981500
O461	O46	0.720000	0.291700	0.411870
O471	O47	0.785600	0.656700	0.440310
O481	O48	0.723700	0.341000	0.488500
C911	C91	0.764900	0.599500	0.461200
C921	C92	0.749000	0.538000	0.426200
C931	C93	0.741800	0.473200	0.447700
H361	H36	0.745400	0.467400	0.483300
C941	C94	0.729300	0.416500	0.416200
C951	C95	0.724000	0.346000	0.441000
C961	C96	0.722400	0.425500	0.363800
H371	H37	0.713400	0.387500	0.342400
C971	C97	0.729000	0.491500	0.342700
C981	C98	0.744400	0.547700	0.374100
H381	H38	0.751500	0.591600	0.359900
C991	C99	0.719700	0.502500	0.287600
C1001	C100	0.729600	0.459500	0.246600
H391	H39	0.740800	0.412400	0.247900
C1011	C101	0.690900	0.329100	0.060900
C1021	C102	0.704700	0.415800	0.131800
H401	H40	0.685300	0.383500	0.154500
C1031	C103	0.713000	0.399400	0.079200
C1041	C104	0.725500	0.479600	0.149400
C1051	C105	0.751300	0.530200	0.115900
H411	H41	0.764100	0.573800	0.128500
C1061	C106	0.757900	0.514900	0.063500
C1071	C107	0.739900	0.448300	0.046000
H421	H42	0.746200	0.437000	0.011300
C1081	C108	0.784500	0.572100	0.027700
N161	N16	0.699000	0.563800	0.219300
N171	N17	0.700800	0.566200	0.268500
N181	N18	0.720100	0.497900	0.203900
Mn131	Mn13	0.712810	0.226760	0.483640
Mn141	Mn14	0.690690	0.112460	0.590780
O491	O49	0.292400	0.343400	0.909100
O501	O50	0.628700	0.204500	0.951200
O511	O51	0.312100	0.290300	0.984050
O521	O52	0.594300	0.243000	0.491150
O531	O53	0.557600	0.208100	0.018500
O541	O54	0.291700	0.280000	0.588130
O551	O55	0.656700	0.214400	0.559690
O561	O56	0.341000	0.276300	0.511500
C1091	C109	0.599500	0.235100	0.538800
C1101	C110	0.538000	0.251000	0.573800
C1111	C111	0.473200	0.258200	0.552300
H431	H43	0.467400	0.254600	0.516700
C1121	C112	0.416500	0.270700	0.583800
C1131	C113	0.346000	0.276000	0.559000
C1141	C114	0.425500	0.277600	0.636200
H441	H44	0.387500	0.286600	0.657600
C1151	C115	0.491500	0.271000	0.657300
C1161	C116	0.547700	0.255600	0.625900
H451	H45	0.591600	0.248500	0.640100
C1171	C117	0.502500	0.280300	0.712400
C1181	C118	0.459500	0.270400	0.753400
H461	H46	0.412400	0.259200	0.752100
C1191	C119	0.329100	0.309100	0.939100
C1201	C120	0.415800	0.295300	0.868200
H471	H47	0.383500	0.314700	0.845500
C1211	C121	0.399400	0.287000	0.920800
C1221	C122	0.479600	0.274500	0.850600
C1231	C123	0.530200	0.248700	0.884100
H481	H48	0.573800	0.235900	0.871500
C1241	C124	0.514900	0.242100	0.936500
C1251	C125	0.448300	0.260100	0.954000
H491	H49	0.437000	0.253800	0.988700
C1261	C126	0.572100	0.215500	0.972300
N191	N19	0.563800	0.301000	0.780700
N201	N20	0.566200	0.299200	0.731500
N211	N21	0.497900	0.279900	0.796100
Mn151	Mn15	0.287190	0.773240	0.483640
Mn161	Mn16	0.309310	0.887540	0.590780
O571	O57	0.707600	0.656600	0.909100
O581	O58	0.371300	0.795500	0.951200
O591	O59	0.687900	0.709700	0.984050
O601	O60	0.405700	0.757000	0.491150
O611	O61	0.442400	0.791900	0.018500
O621	O62	0.708300	0.720000	0.588130
O631	O63	0.343300	0.785600	0.559690
O641	O64	0.659000	0.723700	0.511500
C1271	C127	0.400500	0.764900	0.538800
C1281	C128	0.462000	0.749000	0.573800
C1291	C129	0.526800	0.741800	0.552300
H501	H50	0.532600	0.745400	0.516700
C1301	C130	0.583500	0.729300	0.583800
C1311	C131	0.654000	0.724000	0.559000
C1321	C132	0.574500	0.722400	0.636200
H511	H51	0.612500	0.713400	0.657600
C1331	C133	0.508500	0.729000	0.657300
C1341	C134	0.452300	0.744400	0.625900
H521	H52	0.408400	0.751500	0.640100
C1351	C135	0.497500	0.719700	0.712400
C1361	C136	0.540500	0.729600	0.753400
H531	H53	0.587600	0.740800	0.752100
C1371	C137	0.670900	0.690900	0.939100
C1381	C138	0.584200	0.704700	0.868200
H541	H54	0.616500	0.685300	0.845500
C1391	C139	0.600600	0.713000	0.920800
C1401	C140	0.520400	0.725500	0.850600
C1411	C141	0.469800	0.751300	0.884100
H551	H55	0.426200	0.764100	0.871500
C1421	C142	0.485100	0.757900	0.936500
C1431	C143	0.551700	0.739900	0.954000
H561	H56	0.563000	0.746200	0.988700
C1441	C144	0.427900	0.784500	0.972300
N221	N22	0.436200	0.699000	0.780700
N231	N23	0.433800	0.700800	0.731500
N241	N24	0.502100	0.720100	0.796100
