data_ZOFZUR_clean_PM
_symmetry_space_group_name_H-M	'P1'
_cell_length_a	38.988100
_cell_length_b	38.988100
_cell_length_c	22.296200
_cell_angle_alpha	90.000000
_cell_angle_beta	90.000000
_cell_angle_gamma	120.000000
_symmetry_Int_Tables_number 1

loop_
_symmetry_equiv_pos_as_xyz
'x,y,z'

loop_
_atom_site_label
_atom_site_type_symbol
_atom_site_fract_x
_atom_site_fract_y
_atom_site_fract_z
Mn11	Mn1	0.663920	0.738240	0.092360
Mn21	Mn2	0.580010	0.655630	0.033780
O11	O1	0.394610	0.919900	0.997620
O21	O2	0.373480	0.897570	0.089700
O31	O3	0.683420	0.946990	0.914770
O41	O4	0.716820	0.008450	0.945600
O51	O5	0.667820	0.047180	0.129430
O61	O6	0.610380	0.002120	0.167890
O71	O7	0.571840	0.704280	0.010380
O81	O8	0.612680	0.742570	0.083650
C11	C1	0.588460	0.735160	0.042670
C21	C2	0.577540	0.766140	0.026330
C31	C3	0.555820	0.763160	0.973640
H11	H1	0.547800	0.741900	0.947500
C41	C4	0.547000	0.792710	0.962340
H21	H2	0.532900	0.791100	0.927800
C51	C5	0.558180	0.824280	0.999850
C61	C6	0.579270	0.826580	0.049370
H31	H3	0.587000	0.847900	0.075200
C71	C7	0.589840	0.798370	0.063190
H41	H4	0.605100	0.801300	0.097000
C81	C8	0.546600	0.855630	0.986490
H51	H5	0.560500	0.869800	0.950600
H61	H6	0.518500	0.842200	0.977700
C91	C9	0.526540	0.872680	0.079630
H71	H7	0.540600	0.885500	0.116100
H81	H8	0.514800	0.844400	0.085700
C101	C10	0.493900	0.881520	0.071910
C111	C11	0.466250	0.873140	0.114640
H91	H9	0.468100	0.862300	0.150800
C121	C12	0.435180	0.880410	0.105780
H101	H10	0.416300	0.873500	0.135800
C131	C13	0.431570	0.896750	0.056110
C141	C14	0.458820	0.906630	0.010500
H111	H11	0.456800	0.918200	0.975100
C151	C15	0.489380	0.898570	0.019670
H121	H12	0.507900	0.904900	0.989200
C161	C16	0.590750	0.920760	0.034370
C171	C17	0.596720	0.949090	0.077330
H131	H13	0.576700	0.943700	0.104900
C181	C18	0.631220	0.984730	0.080100
C191	C19	0.660930	0.993280	0.037360
H141	H14	0.684200	0.017700	0.037500
C201	C20	0.655110	0.965200	0.995550
C211	C21	0.621030	0.929330	0.994300
H151	H15	0.618200	0.910500	0.966200
C221	C22	0.397600	0.905370	0.048510
C231	C23	0.686690	0.973740	0.949210
C241	C24	0.636920	0.013810	0.129450
N11	N1	0.554610	0.883880	0.032990
Mn31	Mn3	0.330590	0.071570	0.425690
Mn41	Mn4	0.246670	0.988970	0.367120
O91	O9	0.061280	0.253230	0.330950
O101	O10	0.040150	0.230900	0.423030
O111	O11	0.350090	0.280320	0.248100
O121	O12	0.383490	0.341780	0.278930
O131	O13	0.334490	0.380510	0.462760
O141	O14	0.277050	0.335450	0.501220
O151	O15	0.238510	0.037610	0.343710
O161	O16	0.279350	0.075900	0.416980
C251	C25	0.255130	0.068490	0.376000
C261	C26	0.244210	0.099470	0.359660
C271	C27	0.222490	0.096490	0.306970
H161	H16	0.214470	0.075230	0.280830
C281	C28	0.213670	0.126040	0.295670
H171	H17	0.199570	0.124430	0.261130
C291	C29	0.224850	0.157610	0.333180
C301	C30	0.245940	0.159910	0.382700
H181	H18	0.253670	0.181230	0.408530
C311	C31	0.256510	0.131700	0.396520
H191	H19	0.271770	0.134630	0.430330
C321	C32	0.213270	0.188960	0.319820
H201	H20	0.227170	0.203130	0.283930
H211	H21	0.185170	0.175530	0.311030
C331	C33	0.193210	0.206010	0.412960
H221	H22	0.207270	0.218830	0.449430
H231	H23	0.181470	0.177730	0.419030
C341	C34	0.160570	0.214850	0.405240
C351	C35	0.132920	0.206470	0.447970
H241	H24	0.134770	0.195630	0.484130
C361	C36	0.101850	0.213740	0.439110
H251	H25	0.082970	0.206830	0.469130
C371	C37	0.098240	0.230080	0.389440
C381	C38	0.125490	0.239960	0.343830
H261	H26	0.123470	0.251530	0.308430
C391	C39	0.156050	0.231900	0.353000
H271	H27	0.174570	0.238230	0.322530
C401	C40	0.257420	0.254090	0.367700
C411	C41	0.263390	0.282420	0.410660
H281	H28	0.243370	0.277030	0.438230
C421	C42	0.297890	0.318060	0.413430
C431	C43	0.327600	0.326610	0.370690
H291	H29	0.350870	0.351030	0.370830
C441	C44	0.321780	0.298530	0.328880
C451	C45	0.287700	0.262660	0.327630
H301	H30	0.284870	0.243830	0.299530
C461	C46	0.064270	0.238700	0.381840
C471	C47	0.353360	0.307070	0.282540
C481	C48	0.303590	0.347140	0.462780
N21	N2	0.221280	0.217210	0.366320
Mn51	Mn5	0.997250	0.404900	0.759030
Mn61	Mn6	0.913340	0.322300	0.700450
O171	O17	0.727940	0.586570	0.664290
O181	O18	0.706810	0.564240	0.756370
O191	O19	0.016750	0.613660	0.581440
O201	O20	0.050150	0.675120	0.612270
O211	O21	0.001150	0.713850	0.796100
O221	O22	0.943710	0.668790	0.834560
O231	O23	0.905170	0.370950	0.677050
O241	O24	0.946010	0.409240	0.750320
C491	C49	0.921790	0.401830	0.709340
C501	C50	0.910870	0.432810	0.693000
C511	C51	0.889150	0.429830	0.640310
H311	H31	0.881130	0.408570	0.614170
C521	C52	0.880330	0.459380	0.629010
H321	H32	0.866230	0.457770	0.594470
C531	C53	0.891510	0.490950	0.666520
C541	C54	0.912600	0.493250	0.716040
H331	H33	0.920330	0.514570	0.741870
C551	C55	0.923170	0.465040	0.729860
H341	H34	0.938430	0.467970	0.763670
C561	C56	0.879930	0.522300	0.653160
H351	H35	0.893830	0.536470	0.617270
H361	H36	0.851830	0.508870	0.644370
C571	C57	0.859870	0.539350	0.746300
H371	H37	0.873930	0.552170	0.782770
H381	H38	0.848130	0.511070	0.752370
C581	C58	0.827230	0.548190	0.738580
C591	C59	0.799580	0.539810	0.781310
H391	H39	0.801430	0.528970	0.817470
C601	C60	0.768510	0.547080	0.772450
H401	H40	0.749630	0.540170	0.802470
C611	C61	0.764900	0.563420	0.722780
C621	C62	0.792150	0.573300	0.677170
H411	H41	0.790130	0.584870	0.641770
C631	C63	0.822710	0.565240	0.686340
H421	H42	0.841230	0.571570	0.655870
C641	C64	0.924080	0.587430	0.701040
C651	C65	0.930050	0.615760	0.744000
H431	H43	0.910030	0.610370	0.771570
C661	C66	0.964550	0.651400	0.746770
C671	C67	0.994260	0.659950	0.704030
H441	H44	0.017530	0.684370	0.704170
C681	C68	0.988440	0.631870	0.662220
C691	C69	0.954360	0.596000	0.660970
H451	H45	0.951530	0.577170	0.632870
C701	C70	0.730930	0.572040	0.715180
C711	C71	0.020020	0.640410	0.615880
C721	C72	0.970250	0.680480	0.796120
N31	N3	0.887940	0.550550	0.699660
Mn71	Mn7	0.261760	0.925680	0.092360
Mn81	Mn8	0.344370	0.924370	0.033780
O251	O25	0.080100	0.474710	0.997620
O261	O26	0.102430	0.475910	0.089700
O271	O27	0.053010	0.736430	0.914770
O281	O28	0.991550	0.708370	0.945600
O291	O29	0.952820	0.620640	0.129430
O301	O30	0.997880	0.608260	0.167890
O311	O31	0.295720	0.867560	0.010380
O321	O32	0.257430	0.870110	0.083650
C731	C73	0.264840	0.853300	0.042670
C741	C74	0.233860	0.811400	0.026330
C751	C75	0.236840	0.792660	0.973640
H461	H46	0.258100	0.805900	0.947500
C761	C76	0.207290	0.754290	0.962340
H471	H47	0.208900	0.741800	0.927800
C771	C77	0.175720	0.733900	0.999850
C781	C78	0.173420	0.752690	0.049370
H481	H48	0.152100	0.739100	0.075200
C791	C79	0.201630	0.791470	0.063190
H491	H49	0.198700	0.803800	0.097000
C801	C80	0.144370	0.690970	0.986490
H501	H50	0.130200	0.690700	0.950600
H511	H51	0.157800	0.676300	0.977700
C811	C81	0.127320	0.653860	0.079630
H521	H52	0.114500	0.655100	0.116100
H531	H53	0.155600	0.670400	0.085700
C821	C82	0.118480	0.612380	0.071910
C831	C83	0.126860	0.593110	0.114640
H541	H54	0.137700	0.605800	0.150800
C841	C84	0.119590	0.554770	0.105780
H551	H55	0.126500	0.542800	0.135800
C851	C85	0.103250	0.534820	0.056110
C861	C86	0.093370	0.552190	0.010500
H561	H56	0.081800	0.538600	0.975100
C871	C87	0.101430	0.590810	0.019670
H571	H57	0.095100	0.603000	0.989200
C881	C88	0.079240	0.669990	0.034370
C891	C89	0.050910	0.647630	0.077330
H581	H58	0.056300	0.633000	0.104900
C901	C90	0.015270	0.646490	0.080100
C911	C91	0.006720	0.667650	0.037360
H591	H59	0.982300	0.666500	0.037500
C921	C92	0.034800	0.689910	0.995550
C931	C93	0.070670	0.691700	0.994300
H601	H60	0.089500	0.707700	0.966200
C941	C94	0.094630	0.492230	0.048510
C951	C95	0.026260	0.712950	0.949210
C961	C96	0.986190	0.623110	0.129450
N41	N4	0.116120	0.670730	0.032990
Mn91	Mn9	0.928430	0.259010	0.425690
Mn101	Mn10	0.011030	0.257710	0.367120
O331	O33	0.746770	0.808040	0.330950
O341	O34	0.769100	0.809240	0.423030
O351	O35	0.719680	0.069760	0.248100
O361	O36	0.658220	0.041700	0.278930
O371	O37	0.619490	0.953970	0.462760
O381	O38	0.664550	0.941590	0.501220
O391	O39	0.962390	0.200890	0.343710
O401	O40	0.924100	0.203440	0.416980
C971	C97	0.931510	0.186630	0.376000
C981	C98	0.900530	0.144730	0.359660
C991	C99	0.903510	0.125990	0.306970
H611	H61	0.924770	0.139230	0.280830
C1001	C100	0.873960	0.087620	0.295670
H621	H62	0.875570	0.075130	0.261130
C1011	C101	0.842390	0.067230	0.333180
C1021	C102	0.840090	0.086020	0.382700
H631	H63	0.818770	0.072430	0.408530
C1031	C103	0.868300	0.124800	0.396520
H641	H64	0.865370	0.137130	0.430330
C1041	C104	0.811040	0.024300	0.319820
H651	H65	0.796870	0.024030	0.283930
H661	H66	0.824470	0.009630	0.311030
C1051	C105	0.793990	0.987190	0.412960
H671	H67	0.781170	0.988430	0.449430
H681	H68	0.822270	0.003730	0.419030
C1061	C106	0.785150	0.945710	0.405240
C1071	C107	0.793530	0.926440	0.447970
H691	H69	0.804370	0.939130	0.484130
C1081	C108	0.786260	0.888100	0.439110
H701	H70	0.793170	0.876130	0.469130
C1091	C109	0.769920	0.868150	0.389440
C1101	C110	0.760040	0.885520	0.343830
H711	H71	0.748470	0.871930	0.308430
C1111	C111	0.768100	0.924140	0.353000
H721	H72	0.761770	0.936330	0.322530
C1121	C112	0.745910	0.003320	0.367700
C1131	C113	0.717580	0.980960	0.410660
H731	H73	0.722970	0.966330	0.438230
C1141	C114	0.681940	0.979820	0.413430
C1151	C115	0.673390	0.000980	0.370690
H741	H74	0.648970	0.999830	0.370830
C1161	C116	0.701470	0.023240	0.328880
C1171	C117	0.737340	0.025030	0.327630
H751	H75	0.756170	0.041030	0.299530
C1181	C118	0.761300	0.825560	0.381840
C1191	C119	0.692930	0.046280	0.282540
C1201	C120	0.652860	0.956440	0.462780
N51	N5	0.782790	0.004060	0.366320
Mn111	Mn11	0.595100	0.592350	0.759030
Mn121	Mn12	0.677700	0.591040	0.700450
O411	O41	0.413430	0.141380	0.664290
O421	O42	0.435760	0.142580	0.756370
O431	O43	0.386340	0.403100	0.581440
O441	O44	0.324880	0.375040	0.612270
O451	O45	0.286150	0.287310	0.796100
O461	O46	0.331210	0.274930	0.834560
O471	O47	0.629050	0.534230	0.677050
O481	O48	0.590760	0.536780	0.750320
C1211	C121	0.598170	0.519970	0.709340
C1221	C122	0.567190	0.478070	0.693000
C1231	C123	0.570170	0.459330	0.640310
H761	H76	0.591430	0.472570	0.614170
C1241	C124	0.540620	0.420960	0.629010
H771	H77	0.542230	0.408470	0.594470
C1251	C125	0.509050	0.400570	0.666520
C1261	C126	0.506750	0.419360	0.716040
H781	H78	0.485430	0.405770	0.741870
C1271	C127	0.534960	0.458140	0.729860
H791	H79	0.532030	0.470470	0.763670
C1281	C128	0.477700	0.357640	0.653160
H801	H80	0.463530	0.357370	0.617270
H811	H81	0.491130	0.342970	0.644370
C1291	C129	0.460650	0.320530	0.746300
H821	H82	0.447830	0.321770	0.782770
H831	H83	0.488930	0.337070	0.752370
C1301	C130	0.451810	0.279050	0.738580
C1311	C131	0.460190	0.259780	0.781310
H841	H84	0.471030	0.272470	0.817470
C1321	C132	0.452920	0.221440	0.772450
H851	H85	0.459830	0.209470	0.802470
C1331	C133	0.436580	0.201490	0.722780
C1341	C134	0.426700	0.218860	0.677170
H861	H86	0.415130	0.205270	0.641770
C1351	C135	0.434760	0.257480	0.686340
H871	H87	0.428430	0.269670	0.655870
C1361	C136	0.412570	0.336660	0.701040
C1371	C137	0.384240	0.314300	0.744000
H881	H88	0.389630	0.299670	0.771570
C1381	C138	0.348600	0.313160	0.746770
C1391	C139	0.340050	0.334320	0.704030
H891	H89	0.315630	0.333170	0.704170
C1401	C140	0.368130	0.356580	0.662220
C1411	C141	0.404000	0.358370	0.660970
H901	H90	0.422830	0.374370	0.632870
C1421	C142	0.427960	0.158900	0.715180
C1431	C143	0.359590	0.379620	0.615880
C1441	C144	0.319520	0.289780	0.796120
N61	N6	0.449450	0.337400	0.699660
Mn131	Mn13	0.074320	0.336080	0.092360
Mn141	Mn14	0.075630	0.419990	0.033780
O491	O49	0.525290	0.605390	0.997620
O501	O50	0.524090	0.626520	0.089700
O511	O51	0.263570	0.316580	0.914770
O521	O52	0.291630	0.283180	0.945600
O531	O53	0.379360	0.332180	0.129430
O541	O54	0.391740	0.389620	0.167890
O551	O55	0.132440	0.428160	0.010380
O561	O56	0.129890	0.387320	0.083650
C1451	C145	0.146700	0.411540	0.042670
C1461	C146	0.188600	0.422460	0.026330
C1471	C147	0.207340	0.444180	0.973640
H911	H91	0.194100	0.452200	0.947500
C1481	C148	0.245710	0.453000	0.962340
H921	H92	0.258200	0.467100	0.927800
C1491	C149	0.266100	0.441820	0.999850
C1501	C150	0.247310	0.420730	0.049370
H931	H93	0.260900	0.413000	0.075200
C1511	C151	0.208530	0.410160	0.063190
H941	H94	0.196200	0.394900	0.097000
C1521	C152	0.309030	0.453400	0.986490
H951	H95	0.309300	0.439500	0.950600
H961	H96	0.323700	0.481500	0.977700
C1531	C153	0.346140	0.473460	0.079630
H971	H97	0.344900	0.459400	0.116100
H981	H98	0.329600	0.485200	0.085700
C1541	C154	0.387620	0.506100	0.071910
C1551	C155	0.406890	0.533750	0.114640
H991	H99	0.394200	0.531900	0.150800
C1561	C156	0.445230	0.564820	0.105780
H1001	H100	0.457200	0.583700	0.135800
C1571	C157	0.465180	0.568430	0.056110
C1581	C158	0.447810	0.541180	0.010500
H1011	H101	0.461400	0.543200	0.975100
C1591	C159	0.409190	0.510620	0.019670
H1021	H102	0.397000	0.492100	0.989200
C1601	C160	0.330010	0.409250	0.034370
C1611	C161	0.352370	0.403280	0.077330
H1031	H103	0.367000	0.423300	0.104900
C1621	C162	0.353510	0.368780	0.080100
C1631	C163	0.332350	0.339070	0.037360
H1041	H104	0.333500	0.315800	0.037500
C1641	C164	0.310090	0.344890	0.995550
C1651	C165	0.308300	0.378970	0.994300
H1051	H105	0.292300	0.381800	0.966200
C1661	C166	0.507770	0.602400	0.048510
C1671	C167	0.287050	0.313310	0.949210
C1681	C168	0.376890	0.363080	0.129450
N71	N7	0.329270	0.445390	0.032990
Mn151	Mn15	0.740990	0.669410	0.425690
Mn161	Mn16	0.742290	0.753330	0.367120
O571	O57	0.191960	0.938720	0.330950
O581	O58	0.190760	0.959850	0.423030
O591	O59	0.930240	0.649910	0.248100
O601	O60	0.958300	0.616510	0.278930
O611	O61	0.046030	0.665510	0.462760
O621	O62	0.058410	0.722950	0.501220
O631	O63	0.799110	0.761490	0.343710
O641	O64	0.796560	0.720650	0.416980
C1691	C169	0.813370	0.744870	0.376000
C1701	C170	0.855270	0.755790	0.359660
C1711	C171	0.874010	0.777510	0.306970
H1061	H106	0.860770	0.785530	0.280830
C1721	C172	0.912380	0.786330	0.295670
H1071	H107	0.924870	0.800430	0.261130
C1731	C173	0.932770	0.775150	0.333180
C1741	C174	0.913980	0.754060	0.382700
H1081	H108	0.927570	0.746330	0.408530
C1751	C175	0.875200	0.743490	0.396520
H1091	H109	0.862870	0.728230	0.430330
C1761	C176	0.975700	0.786730	0.319820
H1101	H110	0.975970	0.772830	0.283930
H1111	H111	0.990370	0.814830	0.311030
C1771	C177	0.012810	0.806790	0.412960
H1121	H112	0.011570	0.792730	0.449430
H1131	H113	0.996270	0.818530	0.419030
C1781	C178	0.054290	0.839430	0.405240
C1791	C179	0.073560	0.867080	0.447970
H1141	H114	0.060870	0.865230	0.484130
C1801	C180	0.111900	0.898150	0.439110
H1151	H115	0.123870	0.917030	0.469130
C1811	C181	0.131850	0.901760	0.389440
C1821	C182	0.114480	0.874510	0.343830
H1161	H116	0.128070	0.876530	0.308430
C1831	C183	0.075860	0.843950	0.353000
H1171	H117	0.063670	0.825430	0.322530
C1841	C184	0.996680	0.742580	0.367700
C1851	C185	0.019040	0.736610	0.410660
H1181	H118	0.033670	0.756630	0.438230
C1861	C186	0.020180	0.702110	0.413430
C1871	C187	0.999020	0.672400	0.370690
H1191	H119	0.000170	0.649130	0.370830
C1881	C188	0.976760	0.678220	0.328880
C1891	C189	0.974970	0.712300	0.327630
H1201	H120	0.958970	0.715130	0.299530
C1901	C190	0.174440	0.935730	0.381840
C1911	C191	0.953720	0.646640	0.282540
C1921	C192	0.043560	0.696410	0.462780
N81	N8	0.995940	0.778720	0.366320
Mn171	Mn17	0.407650	0.002750	0.759030
Mn181	Mn18	0.408960	0.086660	0.700450
O651	O65	0.858620	0.272060	0.664290
O661	O66	0.857420	0.293190	0.756370
O671	O67	0.596900	0.983250	0.581440
O681	O68	0.624960	0.949850	0.612270
O691	O69	0.712690	0.998850	0.796100
O701	O70	0.725070	0.056290	0.834560
O711	O71	0.465770	0.094830	0.677050
O721	O72	0.463220	0.053990	0.750320
C1931	C193	0.480030	0.078210	0.709340
C1941	C194	0.521930	0.089130	0.693000
C1951	C195	0.540670	0.110850	0.640310
H1211	H121	0.527430	0.118870	0.614170
C1961	C196	0.579040	0.119670	0.629010
H1221	H122	0.591530	0.133770	0.594470
C1971	C197	0.599430	0.108490	0.666520
C1981	C198	0.580640	0.087400	0.716040
H1231	H123	0.594230	0.079670	0.741870
C1991	C199	0.541860	0.076830	0.729860
H1241	H124	0.529530	0.061570	0.763670
C2001	C200	0.642360	0.120070	0.653160
H1251	H125	0.642630	0.106170	0.617270
H1261	H126	0.657030	0.148170	0.644370
C2011	C201	0.679470	0.140130	0.746300
H1271	H127	0.678230	0.126070	0.782770
H1281	H128	0.662930	0.151870	0.752370
C2021	C202	0.720950	0.172770	0.738580
C2031	C203	0.740220	0.200420	0.781310
H1291	H129	0.727530	0.198570	0.817470
C2041	C204	0.778560	0.231490	0.772450
H1301	H130	0.790530	0.250370	0.802470
C2051	C205	0.798510	0.235100	0.722780
C2061	C206	0.781140	0.207850	0.677170
H1311	H131	0.794730	0.209870	0.641770
C2071	C207	0.742520	0.177290	0.686340
H1321	H132	0.730330	0.158770	0.655870
C2081	C208	0.663340	0.075920	0.701040
C2091	C209	0.685700	0.069950	0.744000
H1331	H133	0.700330	0.089970	0.771570
C2101	C210	0.686840	0.035450	0.746770
C2111	C211	0.665680	0.005740	0.704030
H1341	H134	0.666830	0.982470	0.704170
C2121	C212	0.643420	0.011560	0.662220
C2131	C213	0.641630	0.045640	0.660970
H1351	H135	0.625630	0.048470	0.632870
C2141	C214	0.841100	0.269070	0.715180
C2151	C215	0.620380	0.979980	0.615880
C2161	C216	0.710220	0.029750	0.796120
N91	N9	0.662600	0.112060	0.699660
Mn191	Mn19	0.261760	0.336080	0.592360
Mn201	Mn20	0.344370	0.419990	0.533780
O731	O73	0.080100	0.605390	0.497620
O741	O74	0.102430	0.626520	0.589700
O751	O75	0.053010	0.316580	0.414770
O761	O76	0.991550	0.283180	0.445600
O771	O77	0.952820	0.332180	0.629430
O781	O78	0.997880	0.389620	0.667890
O791	O79	0.295720	0.428160	0.510380
O801	O80	0.257430	0.387320	0.583650
C2171	C217	0.264840	0.411540	0.542670
C2181	C218	0.233860	0.422460	0.526330
C2191	C219	0.236840	0.444180	0.473640
H1361	H136	0.258100	0.452200	0.447500
C2201	C220	0.207290	0.453000	0.462340
H1371	H137	0.208900	0.467100	0.427800
C2211	C221	0.175720	0.441820	0.499850
C2221	C222	0.173420	0.420730	0.549370
H1381	H138	0.152100	0.413000	0.575200
C2231	C223	0.201630	0.410160	0.563190
H1391	H139	0.198700	0.394900	0.597000
C2241	C224	0.144370	0.453400	0.486490
H1401	H140	0.130200	0.439500	0.450600
H1411	H141	0.157800	0.481500	0.477700
C2251	C225	0.127320	0.473460	0.579630
H1421	H142	0.114500	0.459400	0.616100
H1431	H143	0.155600	0.485200	0.585700
C2261	C226	0.118480	0.506100	0.571910
C2271	C227	0.126860	0.533750	0.614640
H1441	H144	0.137700	0.531900	0.650800
C2281	C228	0.119590	0.564820	0.605780
H1451	H145	0.126500	0.583700	0.635800
C2291	C229	0.103250	0.568430	0.556110
C2301	C230	0.093370	0.541180	0.510500
H1461	H146	0.081800	0.543200	0.475100
C2311	C231	0.101430	0.510620	0.519670
H1471	H147	0.095100	0.492100	0.489200
C2321	C232	0.079240	0.409250	0.534370
C2331	C233	0.050910	0.403280	0.577330
H1481	H148	0.056300	0.423300	0.604900
C2341	C234	0.015270	0.368780	0.580100
C2351	C235	0.006720	0.339070	0.537360
H1491	H149	0.982300	0.315800	0.537500
C2361	C236	0.034800	0.344890	0.495550
C2371	C237	0.070670	0.378970	0.494300
H1501	H150	0.089500	0.381800	0.466200
C2381	C238	0.094630	0.602400	0.548510
C2391	C239	0.026260	0.313310	0.449210
C2401	C240	0.986190	0.363080	0.629450
N101	N10	0.116120	0.445390	0.532990
Mn211	Mn21	0.928430	0.669410	0.925690
Mn221	Mn22	0.011030	0.753330	0.867120
O811	O81	0.746770	0.938720	0.830950
O821	O82	0.769100	0.959850	0.923030
O831	O83	0.719680	0.649910	0.748100
O841	O84	0.658220	0.616510	0.778930
O851	O85	0.619490	0.665510	0.962760
O861	O86	0.664550	0.722950	0.001220
O871	O87	0.962390	0.761490	0.843710
O881	O88	0.924100	0.720650	0.916980
C2411	C241	0.931510	0.744870	0.876000
C2421	C242	0.900530	0.755790	0.859660
C2431	C243	0.903510	0.777510	0.806970
H1511	H151	0.924770	0.785530	0.780830
C2441	C244	0.873960	0.786330	0.795670
H1521	H152	0.875570	0.800430	0.761130
C2451	C245	0.842390	0.775150	0.833180
C2461	C246	0.840090	0.754060	0.882700
H1531	H153	0.818770	0.746330	0.908530
C2471	C247	0.868300	0.743490	0.896520
H1541	H154	0.865370	0.728230	0.930330
C2481	C248	0.811040	0.786730	0.819820
H1551	H155	0.796870	0.772830	0.783930
H1561	H156	0.824470	0.814830	0.811030
C2491	C249	0.793990	0.806790	0.912960
H1571	H157	0.781170	0.792730	0.949430
H1581	H158	0.822270	0.818530	0.919030
C2501	C250	0.785150	0.839430	0.905240
C2511	C251	0.793530	0.867080	0.947970
H1591	H159	0.804370	0.865230	0.984130
C2521	C252	0.786260	0.898150	0.939110
H1601	H160	0.793170	0.917030	0.969130
C2531	C253	0.769920	0.901760	0.889440
C2541	C254	0.760040	0.874510	0.843830
H1611	H161	0.748470	0.876530	0.808430
C2551	C255	0.768100	0.843950	0.853000
H1621	H162	0.761770	0.825430	0.822530
C2561	C256	0.745910	0.742580	0.867700
C2571	C257	0.717580	0.736610	0.910660
H1631	H163	0.722970	0.756630	0.938230
C2581	C258	0.681940	0.702110	0.913430
C2591	C259	0.673390	0.672400	0.870690
H1641	H164	0.648970	0.649130	0.870830
C2601	C260	0.701470	0.678220	0.828880
C2611	C261	0.737340	0.712300	0.827630
H1651	H165	0.756170	0.715130	0.799530
C2621	C262	0.761300	0.935730	0.881840
C2631	C263	0.692930	0.646640	0.782540
C2641	C264	0.652860	0.696410	0.962780
N111	N11	0.782790	0.778720	0.866320
Mn231	Mn23	0.595100	0.002750	0.259030
Mn241	Mn24	0.677700	0.086660	0.200450
O891	O89	0.413430	0.272060	0.164290
O901	O90	0.435760	0.293190	0.256370
O911	O91	0.386340	0.983250	0.081440
O921	O92	0.324880	0.949850	0.112270
O931	O93	0.286150	0.998850	0.296100
O941	O94	0.331210	0.056290	0.334560
O951	O95	0.629050	0.094830	0.177050
O961	O96	0.590760	0.053990	0.250320
C2651	C265	0.598170	0.078210	0.209340
C2661	C266	0.567190	0.089130	0.193000
C2671	C267	0.570170	0.110850	0.140310
H1661	H166	0.591430	0.118870	0.114170
C2681	C268	0.540620	0.119670	0.129010
H1671	H167	0.542230	0.133770	0.094470
C2691	C269	0.509050	0.108490	0.166520
C2701	C270	0.506750	0.087400	0.216040
H1681	H168	0.485430	0.079670	0.241870
C2711	C271	0.534960	0.076830	0.229860
H1691	H169	0.532030	0.061570	0.263670
C2721	C272	0.477700	0.120070	0.153160
H1701	H170	0.463530	0.106170	0.117270
H1711	H171	0.491130	0.148170	0.144370
C2731	C273	0.460650	0.140130	0.246300
H1721	H172	0.447830	0.126070	0.282770
H1731	H173	0.488930	0.151870	0.252370
C2741	C274	0.451810	0.172770	0.238580
C2751	C275	0.460190	0.200420	0.281310
H1741	H174	0.471030	0.198570	0.317470
C2761	C276	0.452920	0.231490	0.272450
H1751	H175	0.459830	0.250370	0.302470
C2771	C277	0.436580	0.235100	0.222780
C2781	C278	0.426700	0.207850	0.177170
H1761	H176	0.415130	0.209870	0.141770
C2791	C279	0.434760	0.177290	0.186340
H1771	H177	0.428430	0.158770	0.155870
C2801	C280	0.412570	0.075920	0.201040
C2811	C281	0.384240	0.069950	0.244000
H1781	H178	0.389630	0.089970	0.271570
C2821	C282	0.348600	0.035450	0.246770
C2831	C283	0.340050	0.005740	0.204030
H1791	H179	0.315630	0.982470	0.204170
C2841	C284	0.368130	0.011560	0.162220
C2851	C285	0.404000	0.045640	0.160970
H1801	H180	0.422830	0.048470	0.132870
C2861	C286	0.427960	0.269070	0.215180
C2871	C287	0.359590	0.979980	0.115880
C2881	C288	0.319520	0.029750	0.296120
N121	N12	0.449450	0.112060	0.199660
Mn251	Mn25	0.074320	0.738240	0.592360
Mn261	Mn26	0.075630	0.655630	0.533780
O971	O97	0.525290	0.919900	0.497620
O981	O98	0.524090	0.897570	0.589700
O991	O99	0.263570	0.946990	0.414770
O1001	O100	0.291630	0.008450	0.445600
O1011	O101	0.379360	0.047180	0.629430
O1021	O102	0.391740	0.002120	0.667890
O1031	O103	0.132440	0.704280	0.510380
O1041	O104	0.129890	0.742570	0.583650
C2891	C289	0.146700	0.735160	0.542670
C2901	C290	0.188600	0.766140	0.526330
C2911	C291	0.207340	0.763160	0.473640
H1811	H181	0.194100	0.741900	0.447500
C2921	C292	0.245710	0.792710	0.462340
H1821	H182	0.258200	0.791100	0.427800
C2931	C293	0.266100	0.824280	0.499850
C2941	C294	0.247310	0.826580	0.549370
H1831	H183	0.260900	0.847900	0.575200
C2951	C295	0.208530	0.798370	0.563190
H1841	H184	0.196200	0.801300	0.597000
C2961	C296	0.309030	0.855630	0.486490
H1851	H185	0.309300	0.869800	0.450600
H1861	H186	0.323700	0.842200	0.477700
C2971	C297	0.346140	0.872680	0.579630
H1871	H187	0.344900	0.885500	0.616100
H1881	H188	0.329600	0.844400	0.585700
C2981	C298	0.387620	0.881520	0.571910
C2991	C299	0.406890	0.873140	0.614640
H1891	H189	0.394200	0.862300	0.650800
C3001	C300	0.445230	0.880410	0.605780
H1901	H190	0.457200	0.873500	0.635800
C3011	C301	0.465180	0.896750	0.556110
C3021	C302	0.447810	0.906630	0.510500
H1911	H191	0.461400	0.918200	0.475100
C3031	C303	0.409190	0.898570	0.519670
H1921	H192	0.397000	0.904900	0.489200
C3041	C304	0.330010	0.920760	0.534370
C3051	C305	0.352370	0.949090	0.577330
H1931	H193	0.367000	0.943700	0.604900
C3061	C306	0.353510	0.984730	0.580100
C3071	C307	0.332350	0.993280	0.537360
H1941	H194	0.333500	0.017700	0.537500
C3081	C308	0.310090	0.965200	0.495550
C3091	C309	0.308300	0.929330	0.494300
H1951	H195	0.292300	0.910500	0.466200
C3101	C310	0.507770	0.905370	0.548510
C3111	C311	0.287050	0.973740	0.449210
C3121	C312	0.376890	0.013810	0.629450
N131	N13	0.329270	0.883880	0.532990
Mn271	Mn27	0.740990	0.071570	0.925690
Mn281	Mn28	0.742290	0.988970	0.867120
O1051	O105	0.191960	0.253230	0.830950
O1061	O106	0.190760	0.230900	0.923030
O1071	O107	0.930240	0.280320	0.748100
O1081	O108	0.958300	0.341780	0.778930
O1091	O109	0.046030	0.380510	0.962760
O1101	O110	0.058410	0.335450	0.001220
O1111	O111	0.799110	0.037610	0.843710
O1121	O112	0.796560	0.075900	0.916980
C3131	C313	0.813370	0.068490	0.876000
C3141	C314	0.855270	0.099470	0.859660
C3151	C315	0.874010	0.096490	0.806970
H1961	H196	0.860770	0.075230	0.780830
C3161	C316	0.912380	0.126040	0.795670
H1971	H197	0.924870	0.124430	0.761130
C3171	C317	0.932770	0.157610	0.833180
C3181	C318	0.913980	0.159910	0.882700
H1981	H198	0.927570	0.181230	0.908530
C3191	C319	0.875200	0.131700	0.896520
H1991	H199	0.862870	0.134630	0.930330
C3201	C320	0.975700	0.188960	0.819820
H2001	H200	0.975970	0.203130	0.783930
H2011	H201	0.990370	0.175530	0.811030
C3211	C321	0.012810	0.206010	0.912960
H2021	H202	0.011570	0.218830	0.949430
H2031	H203	0.996270	0.177730	0.919030
C3221	C322	0.054290	0.214850	0.905240
C3231	C323	0.073560	0.206470	0.947970
H2041	H204	0.060870	0.195630	0.984130
C3241	C324	0.111900	0.213740	0.939110
H2051	H205	0.123870	0.206830	0.969130
C3251	C325	0.131850	0.230080	0.889440
C3261	C326	0.114480	0.239960	0.843830
H2061	H206	0.128070	0.251530	0.808430
C3271	C327	0.075860	0.231900	0.853000
H2071	H207	0.063670	0.238230	0.822530
C3281	C328	0.996680	0.254090	0.867700
C3291	C329	0.019040	0.282420	0.910660
H2081	H208	0.033670	0.277030	0.938230
C3301	C330	0.020180	0.318060	0.913430
C3311	C331	0.999020	0.326610	0.870690
H2091	H209	0.000170	0.351030	0.870830
C3321	C332	0.976760	0.298530	0.828880
C3331	C333	0.974970	0.262660	0.827630
H2101	H210	0.958970	0.243830	0.799530
C3341	C334	0.174440	0.238700	0.881840
C3351	C335	0.953720	0.307070	0.782540
C3361	C336	0.043560	0.347140	0.962780
N141	N14	0.995940	0.217210	0.866320
Mn291	Mn29	0.407650	0.404900	0.259030
Mn301	Mn30	0.408960	0.322300	0.200450
O1131	O113	0.858620	0.586570	0.164290
O1141	O114	0.857420	0.564240	0.256370
O1151	O115	0.596900	0.613660	0.081440
O1161	O116	0.624960	0.675120	0.112270
O1171	O117	0.712690	0.713850	0.296100
O1181	O118	0.725070	0.668790	0.334560
O1191	O119	0.465770	0.370950	0.177050
O1201	O120	0.463220	0.409240	0.250320
C3371	C337	0.480030	0.401830	0.209340
C3381	C338	0.521930	0.432810	0.193000
C3391	C339	0.540670	0.429830	0.140310
H2111	H211	0.527430	0.408570	0.114170
C3401	C340	0.579040	0.459380	0.129010
H2121	H212	0.591530	0.457770	0.094470
C3411	C341	0.599430	0.490950	0.166520
C3421	C342	0.580640	0.493250	0.216040
H2131	H213	0.594230	0.514570	0.241870
C3431	C343	0.541860	0.465040	0.229860
H2141	H214	0.529530	0.467970	0.263670
C3441	C344	0.642360	0.522300	0.153160
H2151	H215	0.642630	0.536470	0.117270
H2161	H216	0.657030	0.508870	0.144370
C3451	C345	0.679470	0.539350	0.246300
H2171	H217	0.678230	0.552170	0.282770
H2181	H218	0.662930	0.511070	0.252370
C3461	C346	0.720950	0.548190	0.238580
C3471	C347	0.740220	0.539810	0.281310
H2191	H219	0.727530	0.528970	0.317470
C3481	C348	0.778560	0.547080	0.272450
H2201	H220	0.790530	0.540170	0.302470
C3491	C349	0.798510	0.563420	0.222780
C3501	C350	0.781140	0.573300	0.177170
H2211	H221	0.794730	0.584870	0.141770
C3511	C351	0.742520	0.565240	0.186340
H2221	H222	0.730330	0.571570	0.155870
C3521	C352	0.663340	0.587430	0.201040
C3531	C353	0.685700	0.615760	0.244000
H2231	H223	0.700330	0.610370	0.271570
C3541	C354	0.686840	0.651400	0.246770
C3551	C355	0.665680	0.659950	0.204030
H2241	H224	0.666830	0.684370	0.204170
C3561	C356	0.643420	0.631870	0.162220
C3571	C357	0.641630	0.596000	0.160970
H2251	H225	0.625630	0.577170	0.132870
C3581	C358	0.841100	0.572040	0.215180
C3591	C359	0.620380	0.640410	0.115880
C3601	C360	0.710220	0.680480	0.296120
N151	N15	0.662600	0.550550	0.199660
Mn311	Mn31	0.663920	0.925680	0.592360
Mn321	Mn32	0.580010	0.924370	0.533780
O1211	O121	0.394610	0.474710	0.497620
O1221	O122	0.373480	0.475910	0.589700
O1231	O123	0.683420	0.736430	0.414770
O1241	O124	0.716820	0.708370	0.445600
O1251	O125	0.667820	0.620640	0.629430
O1261	O126	0.610380	0.608260	0.667890
O1271	O127	0.571840	0.867560	0.510380
O1281	O128	0.612680	0.870110	0.583650
C3611	C361	0.588460	0.853300	0.542670
C3621	C362	0.577540	0.811400	0.526330
C3631	C363	0.555820	0.792660	0.473640
H2261	H226	0.547800	0.805900	0.447500
C3641	C364	0.547000	0.754290	0.462340
H2271	H227	0.532900	0.741800	0.427800
C3651	C365	0.558180	0.733900	0.499850
C3661	C366	0.579270	0.752690	0.549370
H2281	H228	0.587000	0.739100	0.575200
C3671	C367	0.589840	0.791470	0.563190
H2291	H229	0.605100	0.803800	0.597000
C3681	C368	0.546600	0.690970	0.486490
H2301	H230	0.560500	0.690700	0.450600
H2311	H231	0.518500	0.676300	0.477700
C3691	C369	0.526540	0.653860	0.579630
H2321	H232	0.540600	0.655100	0.616100
H2331	H233	0.514800	0.670400	0.585700
C3701	C370	0.493900	0.612380	0.571910
C3711	C371	0.466250	0.593110	0.614640
H2341	H234	0.468100	0.605800	0.650800
C3721	C372	0.435180	0.554770	0.605780
H2351	H235	0.416300	0.542800	0.635800
C3731	C373	0.431570	0.534820	0.556110
C3741	C374	0.458820	0.552190	0.510500
H2361	H236	0.456800	0.538600	0.475100
C3751	C375	0.489380	0.590810	0.519670
H2371	H237	0.507900	0.603000	0.489200
C3761	C376	0.590750	0.669990	0.534370
C3771	C377	0.596720	0.647630	0.577330
H2381	H238	0.576700	0.633000	0.604900
C3781	C378	0.631220	0.646490	0.580100
C3791	C379	0.660930	0.667650	0.537360
H2391	H239	0.684200	0.666500	0.537500
C3801	C380	0.655110	0.689910	0.495550
C3811	C381	0.621030	0.691700	0.494300
H2401	H240	0.618200	0.707700	0.466200
C3821	C382	0.397600	0.492230	0.548510
C3831	C383	0.686690	0.712950	0.449210
C3841	C384	0.636920	0.623110	0.629450
N161	N16	0.554610	0.670730	0.532990
Mn331	Mn33	0.330590	0.259010	0.925690
Mn341	Mn34	0.246670	0.257710	0.867120
O1291	O129	0.061280	0.808040	0.830950
O1301	O130	0.040150	0.809240	0.923030
O1311	O131	0.350090	0.069760	0.748100
O1321	O132	0.383490	0.041700	0.778930
O1331	O133	0.334490	0.953970	0.962760
O1341	O134	0.277050	0.941590	0.001220
O1351	O135	0.238510	0.200890	0.843710
O1361	O136	0.279350	0.203440	0.916980
C3851	C385	0.255130	0.186630	0.876000
C3861	C386	0.244210	0.144730	0.859660
C3871	C387	0.222490	0.125990	0.806970
H2411	H241	0.214470	0.139230	0.780830
C3881	C388	0.213670	0.087620	0.795670
H2421	H242	0.199570	0.075130	0.761130
C3891	C389	0.224850	0.067230	0.833180
C3901	C390	0.245940	0.086020	0.882700
H2431	H243	0.253670	0.072430	0.908530
C3911	C391	0.256510	0.124800	0.896520
H2441	H244	0.271770	0.137130	0.930330
C3921	C392	0.213270	0.024300	0.819820
H2451	H245	0.227170	0.024030	0.783930
H2461	H246	0.185170	0.009630	0.811030
C3931	C393	0.193210	0.987190	0.912960
H2471	H247	0.207270	0.988430	0.949430
H2481	H248	0.181470	0.003730	0.919030
C3941	C394	0.160570	0.945710	0.905240
C3951	C395	0.132920	0.926440	0.947970
H2491	H249	0.134770	0.939130	0.984130
C3961	C396	0.101850	0.888100	0.939110
H2501	H250	0.082970	0.876130	0.969130
C3971	C397	0.098240	0.868150	0.889440
C3981	C398	0.125490	0.885520	0.843830
H2511	H251	0.123470	0.871930	0.808430
C3991	C399	0.156050	0.924140	0.853000
H2521	H252	0.174570	0.936330	0.822530
C4001	C400	0.257420	0.003320	0.867700
C4011	C401	0.263390	0.980960	0.910660
H2531	H253	0.243370	0.966330	0.938230
C4021	C402	0.297890	0.979820	0.913430
C4031	C403	0.327600	0.000980	0.870690
H2541	H254	0.350870	0.999830	0.870830
C4041	C404	0.321780	0.023240	0.828880
C4051	C405	0.287700	0.025030	0.827630
H2551	H255	0.284870	0.041030	0.799530
C4061	C406	0.064270	0.825560	0.881840
C4071	C407	0.353360	0.046280	0.782540
C4081	C408	0.303590	0.956440	0.962780
N171	N17	0.221280	0.004060	0.866320
Mn351	Mn35	0.997250	0.592350	0.259030
Mn361	Mn36	0.913340	0.591040	0.200450
O1371	O137	0.727940	0.141380	0.164290
O1381	O138	0.706810	0.142580	0.256370
O1391	O139	0.016750	0.403100	0.081440
O1401	O140	0.050150	0.375040	0.112270
O1411	O141	0.001150	0.287310	0.296100
O1421	O142	0.943710	0.274930	0.334560
O1431	O143	0.905170	0.534230	0.177050
O1441	O144	0.946010	0.536780	0.250320
C4091	C409	0.921790	0.519970	0.209340
C4101	C410	0.910870	0.478070	0.193000
C4111	C411	0.889150	0.459330	0.140310
H2561	H256	0.881130	0.472570	0.114170
C4121	C412	0.880330	0.420960	0.129010
H2571	H257	0.866230	0.408470	0.094470
C4131	C413	0.891510	0.400570	0.166520
C4141	C414	0.912600	0.419360	0.216040
H2581	H258	0.920330	0.405770	0.241870
C4151	C415	0.923170	0.458140	0.229860
H2591	H259	0.938430	0.470470	0.263670
C4161	C416	0.879930	0.357640	0.153160
H2601	H260	0.893830	0.357370	0.117270
H2611	H261	0.851830	0.342970	0.144370
C4171	C417	0.859870	0.320530	0.246300
H2621	H262	0.873930	0.321770	0.282770
H2631	H263	0.848130	0.337070	0.252370
C4181	C418	0.827230	0.279050	0.238580
C4191	C419	0.799580	0.259780	0.281310
H2641	H264	0.801430	0.272470	0.317470
C4201	C420	0.768510	0.221440	0.272450
H2651	H265	0.749630	0.209470	0.302470
C4211	C421	0.764900	0.201490	0.222780
C4221	C422	0.792150	0.218860	0.177170
H2661	H266	0.790130	0.205270	0.141770
C4231	C423	0.822710	0.257480	0.186340
H2671	H267	0.841230	0.269670	0.155870
C4241	C424	0.924080	0.336660	0.201040
C4251	C425	0.930050	0.314300	0.244000
H2681	H268	0.910030	0.299670	0.271570
C4261	C426	0.964550	0.313160	0.246770
C4271	C427	0.994260	0.334320	0.204030
H2691	H269	0.017530	0.333170	0.204170
C4281	C428	0.988440	0.356580	0.162220
C4291	C429	0.954360	0.358370	0.160970
H2701	H270	0.951530	0.374370	0.132870
C4301	C430	0.730930	0.158900	0.215180
C4311	C431	0.020020	0.379620	0.115880
C4321	C432	0.970250	0.289780	0.296120
N181	N18	0.887940	0.337400	0.199660
