data_ZOHBUV_clean_PM
_symmetry_space_group_name_H-M	'P1'
_cell_length_a	15.858500
_cell_length_b	13.419000
_cell_length_c	6.615800
_cell_angle_alpha	90.000000
_cell_angle_beta	97.925000
_cell_angle_gamma	90.000000
_symmetry_Int_Tables_number 1

loop_
_symmetry_equiv_pos_as_xyz
'x,y,z'

loop_
_atom_site_label
_atom_site_type_symbol
_atom_site_fract_x
_atom_site_fract_y
_atom_site_fract_z
Er11	Er1	0.248820	0.560990	0.036000
C11	C1	0.142900	0.388500	0.983300
C21	C2	0.086800	0.296800	0.946100
C31	C3	0.124400	0.203200	0.952100
C41	C4	0.995500	0.126300	0.879700
C51	C5	0.951500	0.216100	0.877000
C61	C6	0.999700	0.303700	0.907400
C71	C7	0.856500	0.216900	0.836700
C81	C8	0.399500	0.551900	0.333300
C91	C9	0.478100	0.548600	0.490400
N11	N1	0.079880	0.118760	0.917000
O11	O1	0.110870	0.473190	0.942800
O21	O2	0.219500	0.377560	0.056100
O31	O3	0.818920	0.136900	0.782800
O41	O4	0.818980	0.296700	0.865500
O51	O5	0.384820	0.487900	0.192800
O61	O6	0.346800	0.621100	0.346000
H11	H1	0.183300	0.199000	0.981900
H21	H2	0.964000	0.068000	0.853900
H31	H3	0.973100	0.365500	0.901400
H41	H4	0.517800	0.598600	0.455700
H51	H5	0.462100	0.566300	0.622100
Er21	Er2	0.751180	0.060990	0.464000
C101	C10	0.857100	0.888500	0.516700
C111	C11	0.913200	0.796800	0.553900
C121	C12	0.875600	0.703200	0.547900
C131	C13	0.004500	0.626300	0.620300
C141	C14	0.048500	0.716100	0.623000
C151	C15	0.000300	0.803700	0.592600
C161	C16	0.143500	0.716900	0.663300
C171	C17	0.600500	0.051900	0.166700
C181	C18	0.521900	0.048600	0.009600
N21	N2	0.920120	0.618760	0.583000
O71	O7	0.889130	0.973190	0.557200
O81	O8	0.780500	0.877560	0.443900
O91	O9	0.181080	0.636900	0.717200
O101	O10	0.181020	0.796700	0.634500
O111	O11	0.615180	0.987900	0.307200
O121	O12	0.653200	0.121100	0.154000
H61	H6	0.816700	0.699000	0.518100
H71	H7	0.036000	0.568000	0.646100
H81	H8	0.026900	0.865500	0.598600
H91	H9	0.482200	0.098600	0.044300
H101	H10	0.537900	0.066300	0.877900
Er31	Er3	0.751180	0.439010	0.964000
C191	C19	0.857100	0.611500	0.016700
C201	C20	0.913200	0.703200	0.053900
C211	C21	0.875600	0.796800	0.047900
C221	C22	0.004500	0.873700	0.120300
C231	C23	0.048500	0.783900	0.123000
C241	C24	0.000300	0.696300	0.092600
C251	C25	0.143500	0.783100	0.163300
C261	C26	0.600500	0.448100	0.666700
C271	C27	0.521900	0.451400	0.509600
N31	N3	0.920120	0.881240	0.083000
O131	O13	0.889130	0.526810	0.057200
O141	O14	0.780500	0.622440	0.943900
O151	O15	0.181080	0.863100	0.217200
O161	O16	0.181020	0.703300	0.134500
O171	O17	0.615180	0.512100	0.807200
O181	O18	0.653200	0.378900	0.654000
H111	H11	0.816700	0.801000	0.018100
H121	H12	0.036000	0.932000	0.146100
H131	H13	0.026900	0.634500	0.098600
H141	H14	0.482200	0.401400	0.544300
H151	H15	0.537900	0.433700	0.377900
Er41	Er4	0.248820	0.939010	0.536000
C281	C28	0.142900	0.111500	0.483300
C291	C29	0.086800	0.203200	0.446100
C301	C30	0.124400	0.296800	0.452100
C311	C31	0.995500	0.373700	0.379700
C321	C32	0.951500	0.283900	0.377000
C331	C33	0.999700	0.196300	0.407400
C341	C34	0.856500	0.283100	0.336700
C351	C35	0.399500	0.948100	0.833300
C361	C36	0.478100	0.951400	0.990400
N41	N4	0.079880	0.381240	0.417000
O191	O19	0.110870	0.026810	0.442800
O201	O20	0.219500	0.122440	0.556100
O211	O21	0.818920	0.363100	0.282800
O221	O22	0.818980	0.203300	0.365500
O231	O23	0.384820	0.012100	0.692800
O241	O24	0.346800	0.878900	0.846000
H161	H16	0.183300	0.301000	0.481900
H171	H17	0.964000	0.432000	0.353900
H181	H18	0.973100	0.134500	0.401400
H191	H19	0.517800	0.901400	0.955700
H201	H20	0.462100	0.933700	0.122100
