data_ZOHFUZ_clean_PM
_symmetry_space_group_name_H-M	'P1'
_cell_length_a	26.669000
_cell_length_b	26.669000
_cell_length_c	26.669000
_cell_angle_alpha	90.000000
_cell_angle_beta	90.000000
_cell_angle_gamma	90.000000
_symmetry_Int_Tables_number 1

loop_
_symmetry_equiv_pos_as_xyz
'x,y,z'

loop_
_atom_site_label
_atom_site_type_symbol
_atom_site_fract_x
_atom_site_fract_y
_atom_site_fract_z
O11	O1	0.182600	0.257300	0.053300
O21	O2	0.182600	0.757300	0.553300
O31	O3	0.682600	0.257300	0.553300
O41	O4	0.682600	0.757300	0.053300
O51	O5	0.817400	0.742700	0.053300
O61	O6	0.817400	0.242700	0.553300
O71	O7	0.317400	0.742700	0.553300
O81	O8	0.317400	0.242700	0.053300
O91	O9	0.817400	0.257300	0.946700
O101	O10	0.817400	0.757300	0.446700
O111	O11	0.317400	0.257300	0.446700
O121	O12	0.317400	0.757300	0.946700
O131	O13	0.182600	0.742700	0.946700
O141	O14	0.182600	0.242700	0.446700
O151	O15	0.682600	0.742700	0.446700
O161	O16	0.682600	0.242700	0.946700
O171	O17	0.053300	0.182600	0.257300
O181	O18	0.053300	0.682600	0.757300
O191	O19	0.553300	0.182600	0.757300
O201	O20	0.553300	0.682600	0.257300
O211	O21	0.053300	0.817400	0.742700
O221	O22	0.053300	0.317400	0.242700
O231	O23	0.553300	0.817400	0.242700
O241	O24	0.553300	0.317400	0.742700
O251	O25	0.946700	0.817400	0.257300
O261	O26	0.946700	0.317400	0.757300
O271	O27	0.446700	0.817400	0.757300
O281	O28	0.446700	0.317400	0.257300
O291	O29	0.946700	0.182600	0.742700
O301	O30	0.946700	0.682600	0.242700
O311	O31	0.446700	0.182600	0.242700
O321	O32	0.446700	0.682600	0.742700
O331	O33	0.257300	0.053300	0.182600
O341	O34	0.257300	0.553300	0.682600
O351	O35	0.757300	0.053300	0.682600
O361	O36	0.757300	0.553300	0.182600
O371	O37	0.742700	0.053300	0.817400
O381	O38	0.742700	0.553300	0.317400
O391	O39	0.242700	0.053300	0.317400
O401	O40	0.242700	0.553300	0.817400
O411	O41	0.257300	0.946700	0.817400
O421	O42	0.257300	0.446700	0.317400
O431	O43	0.757300	0.946700	0.317400
O441	O44	0.757300	0.446700	0.817400
O451	O45	0.742700	0.946700	0.182600
O461	O46	0.742700	0.446700	0.682600
O471	O47	0.242700	0.946700	0.682600
O481	O48	0.242700	0.446700	0.182600
O491	O49	0.257300	0.182600	0.946700
O501	O50	0.257300	0.682600	0.446700
O511	O51	0.757300	0.182600	0.446700
O521	O52	0.757300	0.682600	0.946700
O531	O53	0.742700	0.817400	0.946700
O541	O54	0.742700	0.317400	0.446700
O551	O55	0.242700	0.817400	0.446700
O561	O56	0.242700	0.317400	0.946700
O571	O57	0.257300	0.817400	0.053300
O581	O58	0.257300	0.317400	0.553300
O591	O59	0.757300	0.817400	0.553300
O601	O60	0.757300	0.317400	0.053300
O611	O61	0.742700	0.182600	0.053300
O621	O62	0.742700	0.682600	0.553300
O631	O63	0.242700	0.182600	0.553300
O641	O64	0.242700	0.682600	0.053300
O651	O65	0.182600	0.053300	0.742700
O661	O66	0.182600	0.553300	0.242700
O671	O67	0.682600	0.053300	0.242700
O681	O68	0.682600	0.553300	0.742700
O691	O69	0.817400	0.053300	0.257300
O701	O70	0.817400	0.553300	0.757300
O711	O71	0.317400	0.053300	0.757300
O721	O72	0.317400	0.553300	0.257300
O731	O73	0.817400	0.946700	0.742700
O741	O74	0.817400	0.446700	0.242700
O751	O75	0.317400	0.946700	0.242700
O761	O76	0.317400	0.446700	0.742700
O771	O77	0.182600	0.946700	0.257300
O781	O78	0.182600	0.446700	0.757300
O791	O79	0.682600	0.946700	0.757300
O801	O80	0.682600	0.446700	0.257300
O811	O81	0.053300	0.257300	0.817400
O821	O82	0.053300	0.757300	0.317400
O831	O83	0.553300	0.257300	0.317400
O841	O84	0.553300	0.757300	0.817400
O851	O85	0.053300	0.742700	0.182600
O861	O86	0.053300	0.242700	0.682600
O871	O87	0.553300	0.742700	0.682600
O881	O88	0.553300	0.242700	0.182600
O891	O89	0.946700	0.257300	0.182600
O901	O90	0.946700	0.757300	0.682600
O911	O91	0.446700	0.257300	0.682600
O921	O92	0.446700	0.757300	0.182600
O931	O93	0.946700	0.742700	0.817400
O941	O94	0.946700	0.242700	0.317400
O951	O95	0.446700	0.742700	0.317400
O961	O96	0.446700	0.242700	0.817400
O971	O97	0.817400	0.742700	0.946700
O981	O98	0.817400	0.242700	0.446700
O991	O99	0.317400	0.742700	0.446700
O1001	O100	0.317400	0.242700	0.946700
O1011	O101	0.182600	0.257300	0.946700
O1021	O102	0.182600	0.757300	0.446700
O1031	O103	0.682600	0.257300	0.446700
O1041	O104	0.682600	0.757300	0.946700
O1051	O105	0.182600	0.742700	0.053300
O1061	O106	0.182600	0.242700	0.553300
O1071	O107	0.682600	0.742700	0.553300
O1081	O108	0.682600	0.242700	0.053300
O1091	O109	0.817400	0.257300	0.053300
O1101	O110	0.817400	0.757300	0.553300
O1111	O111	0.317400	0.257300	0.553300
O1121	O112	0.317400	0.757300	0.053300
O1131	O113	0.946700	0.817400	0.742700
O1141	O114	0.946700	0.317400	0.242700
O1151	O115	0.446700	0.817400	0.242700
O1161	O116	0.446700	0.317400	0.742700
O1171	O117	0.946700	0.182600	0.257300
O1181	O118	0.946700	0.682600	0.757300
O1191	O119	0.446700	0.182600	0.757300
O1201	O120	0.446700	0.682600	0.257300
O1211	O121	0.053300	0.182600	0.742700
O1221	O122	0.053300	0.682600	0.242700
O1231	O123	0.553300	0.182600	0.242700
O1241	O124	0.553300	0.682600	0.742700
O1251	O125	0.053300	0.817400	0.257300
O1261	O126	0.053300	0.317400	0.757300
O1271	O127	0.553300	0.817400	0.757300
O1281	O128	0.553300	0.317400	0.257300
O1291	O129	0.742700	0.946700	0.817400
O1301	O130	0.742700	0.446700	0.317400
O1311	O131	0.242700	0.946700	0.317400
O1321	O132	0.242700	0.446700	0.817400
O1331	O133	0.257300	0.946700	0.182600
O1341	O134	0.257300	0.446700	0.682600
O1351	O135	0.757300	0.946700	0.682600
O1361	O136	0.757300	0.446700	0.182600
O1371	O137	0.742700	0.053300	0.182600
O1381	O138	0.742700	0.553300	0.682600
O1391	O139	0.242700	0.053300	0.682600
O1401	O140	0.242700	0.553300	0.182600
O1411	O141	0.257300	0.053300	0.817400
O1421	O142	0.257300	0.553300	0.317400
O1431	O143	0.757300	0.053300	0.317400
O1441	O144	0.757300	0.553300	0.817400
O1451	O145	0.742700	0.817400	0.053300
O1461	O146	0.742700	0.317400	0.553300
O1471	O147	0.242700	0.817400	0.553300
O1481	O148	0.242700	0.317400	0.053300
O1491	O149	0.257300	0.182600	0.053300
O1501	O150	0.257300	0.682600	0.553300
O1511	O151	0.757300	0.182600	0.553300
O1521	O152	0.757300	0.682600	0.053300
O1531	O153	0.742700	0.182600	0.946700
O1541	O154	0.742700	0.682600	0.446700
O1551	O155	0.242700	0.182600	0.446700
O1561	O156	0.242700	0.682600	0.946700
O1571	O157	0.257300	0.817400	0.946700
O1581	O158	0.257300	0.317400	0.446700
O1591	O159	0.757300	0.817400	0.446700
O1601	O160	0.757300	0.317400	0.946700
O1611	O161	0.817400	0.946700	0.257300
O1621	O162	0.817400	0.446700	0.757300
O1631	O163	0.317400	0.946700	0.757300
O1641	O164	0.317400	0.446700	0.257300
O1651	O165	0.182600	0.946700	0.742700
O1661	O166	0.182600	0.446700	0.242700
O1671	O167	0.682600	0.946700	0.242700
O1681	O168	0.682600	0.446700	0.742700
O1691	O169	0.182600	0.053300	0.257300
O1701	O170	0.182600	0.553300	0.757300
O1711	O171	0.682600	0.053300	0.757300
O1721	O172	0.682600	0.553300	0.257300
O1731	O173	0.817400	0.053300	0.742700
O1741	O174	0.817400	0.553300	0.242700
O1751	O175	0.317400	0.053300	0.242700
O1761	O176	0.317400	0.553300	0.742700
O1771	O177	0.946700	0.742700	0.182600
O1781	O178	0.946700	0.242700	0.682600
O1791	O179	0.446700	0.742700	0.682600
O1801	O180	0.446700	0.242700	0.182600
O1811	O181	0.946700	0.257300	0.817400
O1821	O182	0.946700	0.757300	0.317400
O1831	O183	0.446700	0.257300	0.317400
O1841	O184	0.446700	0.757300	0.817400
O1851	O185	0.053300	0.742700	0.817400
O1861	O186	0.053300	0.242700	0.317400
O1871	O187	0.553300	0.742700	0.317400
O1881	O188	0.553300	0.242700	0.817400
O1891	O189	0.053300	0.257300	0.182600
O1901	O190	0.053300	0.757300	0.682600
O1911	O191	0.553300	0.257300	0.682600
O1921	O192	0.553300	0.757300	0.182600
C11	C1	0.200000	0.300000	0.069500
C21	C2	0.179000	0.321000	0.113800
C31	C3	0.200000	0.800000	0.569500
C41	C4	0.179000	0.821000	0.613800
C51	C5	0.800000	0.700000	0.069500
C61	C6	0.821000	0.679000	0.113800
C71	C7	0.800000	0.200000	0.569500
C81	C8	0.821000	0.179000	0.613800
C91	C9	0.300000	0.200000	0.069500
C101	C10	0.321000	0.179000	0.113800
C111	C11	0.800000	0.300000	0.930500
C121	C12	0.821000	0.321000	0.886200
C131	C13	0.800000	0.800000	0.430500
C141	C14	0.821000	0.821000	0.386200
C151	C15	0.300000	0.300000	0.430500
C161	C16	0.321000	0.321000	0.386200
C171	C17	0.200000	0.700000	0.930500
C181	C18	0.179000	0.679000	0.886200
C191	C19	0.200000	0.200000	0.430500
C201	C20	0.179000	0.179000	0.386200
C211	C21	0.069500	0.200000	0.300000
C221	C22	0.113800	0.179000	0.321000
C231	C23	0.569500	0.200000	0.800000
C241	C24	0.613800	0.179000	0.821000
C251	C25	0.069500	0.800000	0.700000
C261	C26	0.113800	0.821000	0.679000
C271	C27	0.069500	0.300000	0.200000
C281	C28	0.113800	0.321000	0.179000
C291	C29	0.569500	0.800000	0.200000
C301	C30	0.613800	0.821000	0.179000
C311	C31	0.930500	0.800000	0.300000
C321	C32	0.886200	0.821000	0.321000
C331	C33	0.430500	0.800000	0.800000
C341	C34	0.386200	0.821000	0.821000
C351	C35	0.430500	0.300000	0.300000
C361	C36	0.386200	0.321000	0.321000
C371	C37	0.930500	0.200000	0.700000
C381	C38	0.886200	0.179000	0.679000
C391	C39	0.430500	0.200000	0.200000
C401	C40	0.386200	0.179000	0.179000
C411	C41	0.300000	0.069500	0.200000
C421	C42	0.321000	0.113800	0.179000
C431	C43	0.300000	0.569500	0.700000
C441	C44	0.321000	0.613800	0.679000
C451	C45	0.700000	0.069500	0.800000
C461	C46	0.679000	0.113800	0.821000
C471	C47	0.700000	0.569500	0.300000
C481	C48	0.679000	0.613800	0.321000
C491	C49	0.200000	0.069500	0.300000
C501	C50	0.179000	0.113800	0.321000
C511	C51	0.300000	0.930500	0.800000
C521	C52	0.321000	0.886200	0.821000
C531	C53	0.300000	0.430500	0.300000
C541	C54	0.321000	0.386200	0.321000
C551	C55	0.700000	0.930500	0.200000
C561	C56	0.679000	0.886200	0.179000
C571	C57	0.700000	0.430500	0.700000
C581	C58	0.679000	0.386200	0.679000
C591	C59	0.200000	0.430500	0.200000
C601	C60	0.179000	0.386200	0.179000
C611	C61	0.300000	0.200000	0.930500
C621	C62	0.321000	0.179000	0.886200
C631	C63	0.300000	0.700000	0.430500
C641	C64	0.321000	0.679000	0.386200
C651	C65	0.700000	0.800000	0.930500
C661	C66	0.679000	0.821000	0.886200
C671	C67	0.700000	0.300000	0.430500
C681	C68	0.679000	0.321000	0.386200
C691	C69	0.200000	0.300000	0.930500
C701	C70	0.179000	0.321000	0.886200
C711	C71	0.300000	0.800000	0.069500
C721	C72	0.321000	0.821000	0.113800
C731	C73	0.300000	0.300000	0.569500
C741	C74	0.321000	0.321000	0.613800
C751	C75	0.700000	0.200000	0.069500
C761	C76	0.679000	0.179000	0.113800
C771	C77	0.700000	0.700000	0.569500
C781	C78	0.679000	0.679000	0.613800
C791	C79	0.200000	0.200000	0.569500
C801	C80	0.179000	0.179000	0.613800
C811	C81	0.200000	0.069500	0.700000
C821	C82	0.179000	0.113800	0.679000
C831	C83	0.200000	0.569500	0.200000
C841	C84	0.179000	0.613800	0.179000
C851	C85	0.800000	0.069500	0.300000
C861	C86	0.821000	0.113800	0.321000
C871	C87	0.800000	0.569500	0.800000
C881	C88	0.821000	0.613800	0.821000
C891	C89	0.300000	0.569500	0.300000
C901	C90	0.321000	0.613800	0.321000
C911	C91	0.800000	0.930500	0.700000
C921	C92	0.821000	0.886200	0.679000
C931	C93	0.800000	0.430500	0.200000
C941	C94	0.821000	0.386200	0.179000
C951	C95	0.300000	0.930500	0.200000
C961	C96	0.321000	0.886200	0.179000
C971	C97	0.200000	0.930500	0.300000
C981	C98	0.179000	0.886200	0.321000
C991	C99	0.200000	0.430500	0.800000
C1001	C100	0.179000	0.386200	0.821000
C1011	C101	0.069500	0.300000	0.800000
C1021	C102	0.113800	0.321000	0.821000
C1031	C103	0.569500	0.300000	0.300000
C1041	C104	0.613800	0.321000	0.321000
C1051	C105	0.069500	0.700000	0.200000
C1061	C106	0.113800	0.679000	0.179000
C1071	C107	0.569500	0.700000	0.700000
C1081	C108	0.613800	0.679000	0.679000
C1091	C109	0.569500	0.200000	0.200000
C1101	C110	0.613800	0.179000	0.179000
C1111	C111	0.930500	0.300000	0.200000
C1121	C112	0.886200	0.321000	0.179000
C1131	C113	0.430500	0.300000	0.700000
C1141	C114	0.386200	0.321000	0.679000
C1151	C115	0.930500	0.700000	0.800000
C1161	C116	0.886200	0.679000	0.821000
C1171	C117	0.930500	0.200000	0.300000
C1181	C118	0.886200	0.179000	0.321000
C1191	C119	0.430500	0.700000	0.300000
C1201	C120	0.386200	0.679000	0.321000
C1211	C121	0.800000	0.700000	0.930500
C1221	C122	0.821000	0.679000	0.886200
C1231	C123	0.800000	0.200000	0.430500
C1241	C124	0.821000	0.179000	0.386200
C1251	C125	0.200000	0.800000	0.430500
C1261	C126	0.179000	0.821000	0.386200
C1271	C127	0.200000	0.700000	0.069500
C1281	C128	0.179000	0.679000	0.113800
C1291	C129	0.800000	0.300000	0.069500
C1301	C130	0.821000	0.321000	0.113800
C1311	C131	0.800000	0.800000	0.569500
C1321	C132	0.821000	0.821000	0.613800
C1331	C133	0.930500	0.800000	0.700000
C1341	C134	0.886200	0.821000	0.679000
C1351	C135	0.430500	0.800000	0.200000
C1361	C136	0.386200	0.821000	0.179000
C1371	C137	0.430500	0.200000	0.800000
C1381	C138	0.386200	0.179000	0.821000
C1391	C139	0.069500	0.200000	0.700000
C1401	C140	0.113800	0.179000	0.679000
C1411	C141	0.069500	0.800000	0.300000
C1421	C142	0.113800	0.821000	0.321000
C1431	C143	0.569500	0.800000	0.800000
C1441	C144	0.613800	0.821000	0.821000
C1451	C145	0.700000	0.930500	0.800000
C1461	C146	0.679000	0.886200	0.821000
C1471	C147	0.700000	0.430500	0.300000
C1481	C148	0.679000	0.386200	0.321000
C1491	C149	0.300000	0.430500	0.700000
C1501	C150	0.321000	0.386200	0.679000
C1511	C151	0.700000	0.069500	0.200000
C1521	C152	0.679000	0.113800	0.179000
C1531	C153	0.700000	0.569500	0.700000
C1541	C154	0.679000	0.613800	0.679000
C1551	C155	0.300000	0.069500	0.800000
C1561	C156	0.321000	0.113800	0.821000
C1571	C157	0.700000	0.800000	0.069500
C1581	C158	0.679000	0.821000	0.113800
C1591	C159	0.700000	0.300000	0.569500
C1601	C160	0.679000	0.321000	0.613800
C1611	C161	0.300000	0.700000	0.569500
C1621	C162	0.321000	0.679000	0.613800
C1631	C163	0.700000	0.200000	0.930500
C1641	C164	0.679000	0.179000	0.886200
C1651	C165	0.700000	0.700000	0.430500
C1661	C166	0.679000	0.679000	0.386200
C1671	C167	0.300000	0.800000	0.930500
C1681	C168	0.321000	0.821000	0.886200
C1691	C169	0.800000	0.930500	0.300000
C1701	C170	0.821000	0.886200	0.321000
C1711	C171	0.800000	0.430500	0.800000
C1721	C172	0.821000	0.386200	0.821000
C1731	C173	0.200000	0.930500	0.700000
C1741	C174	0.179000	0.886200	0.679000
C1751	C175	0.200000	0.569500	0.800000
C1761	C176	0.179000	0.613800	0.821000
C1771	C177	0.800000	0.069500	0.700000
C1781	C178	0.821000	0.113800	0.679000
C1791	C179	0.800000	0.569500	0.200000
C1801	C180	0.821000	0.613800	0.179000
C1811	C181	0.930500	0.700000	0.200000
C1821	C182	0.886200	0.679000	0.179000
C1831	C183	0.430500	0.700000	0.700000
C1841	C184	0.386200	0.679000	0.679000
C1851	C185	0.930500	0.300000	0.800000
C1861	C186	0.886200	0.321000	0.821000
C1871	C187	0.069500	0.700000	0.800000
C1881	C188	0.113800	0.679000	0.821000
C1891	C189	0.569500	0.700000	0.300000
C1901	C190	0.613800	0.679000	0.321000
C1911	C191	0.569500	0.300000	0.700000
C1921	C192	0.613800	0.321000	0.679000
Fe11	Fe1	0.210630	0.210630	0.000000
Fe21	Fe2	0.210630	0.710630	0.500000
Fe31	Fe3	0.710630	0.210630	0.500000
Fe41	Fe4	0.710630	0.710630	0.000000
Fe51	Fe5	0.789370	0.789370	0.000000
Fe61	Fe6	0.789370	0.289370	0.500000
Fe71	Fe7	0.289370	0.789370	0.500000
Fe81	Fe8	0.289370	0.289370	0.000000
Fe91	Fe9	0.789370	0.210630	0.000000
Fe101	Fe10	0.789370	0.710630	0.500000
Fe111	Fe11	0.289370	0.210630	0.500000
Fe121	Fe12	0.289370	0.710630	0.000000
Fe131	Fe13	0.210630	0.789370	0.000000
Fe141	Fe14	0.210630	0.289370	0.500000
Fe151	Fe15	0.710630	0.789370	0.500000
Fe161	Fe16	0.710630	0.289370	0.000000
Fe171	Fe17	0.000000	0.210630	0.210630
Fe181	Fe18	0.000000	0.710630	0.710630
Fe191	Fe19	0.500000	0.210630	0.710630
Fe201	Fe20	0.500000	0.710630	0.210630
Fe211	Fe21	0.000000	0.789370	0.789370
Fe221	Fe22	0.000000	0.289370	0.289370
Fe231	Fe23	0.500000	0.789370	0.289370
Fe241	Fe24	0.500000	0.289370	0.789370
Fe251	Fe25	0.000000	0.789370	0.210630
Fe261	Fe26	0.000000	0.289370	0.710630
Fe271	Fe27	0.500000	0.789370	0.710630
Fe281	Fe28	0.500000	0.289370	0.210630
Fe291	Fe29	0.000000	0.210630	0.789370
Fe301	Fe30	0.000000	0.710630	0.289370
Fe311	Fe31	0.500000	0.210630	0.289370
Fe321	Fe32	0.500000	0.710630	0.789370
Fe331	Fe33	0.210630	0.000000	0.210630
Fe341	Fe34	0.210630	0.500000	0.710630
Fe351	Fe35	0.710630	0.000000	0.710630
Fe361	Fe36	0.710630	0.500000	0.210630
Fe371	Fe37	0.789370	0.000000	0.789370
Fe381	Fe38	0.789370	0.500000	0.289370
Fe391	Fe39	0.289370	0.000000	0.289370
Fe401	Fe40	0.289370	0.500000	0.789370
Fe411	Fe41	0.210630	0.000000	0.789370
Fe421	Fe42	0.210630	0.500000	0.289370
Fe431	Fe43	0.710630	0.000000	0.289370
Fe441	Fe44	0.710630	0.500000	0.789370
Fe451	Fe45	0.789370	0.000000	0.210630
Fe461	Fe46	0.789370	0.500000	0.710630
Fe471	Fe47	0.289370	0.000000	0.710630
Fe481	Fe48	0.289370	0.500000	0.210630
C1931	C193	0.197500	0.365800	0.134200
H11	H1	0.223000	0.382500	0.117500
C1941	C194	0.697500	0.365800	0.634200
H21	H2	0.723000	0.382500	0.617500
C1951	C195	0.802500	0.634200	0.134200
H31	H3	0.777000	0.617500	0.117500
C1961	C196	0.302500	0.634200	0.634200
H41	H4	0.277000	0.617500	0.617500
C1971	C197	0.302500	0.134200	0.134200
H51	H5	0.277000	0.117500	0.117500
C1981	C198	0.802500	0.365800	0.865800
H61	H6	0.777000	0.382500	0.882500
C1991	C199	0.302500	0.365800	0.365800
H71	H7	0.277000	0.382500	0.382500
C2001	C200	0.197500	0.634200	0.865800
H81	H8	0.223000	0.617500	0.882500
C2011	C201	0.197500	0.134200	0.365800
H91	H9	0.223000	0.117500	0.382500
C2021	C202	0.697500	0.634200	0.365800
H101	H10	0.723000	0.617500	0.382500
C2031	C203	0.134200	0.197500	0.365800
H111	H11	0.117500	0.223000	0.382500
C2041	C204	0.134200	0.697500	0.865800
H121	H12	0.117500	0.723000	0.882500
C2051	C205	0.134200	0.802500	0.634200
H131	H13	0.117500	0.777000	0.617500
C2061	C206	0.134200	0.302500	0.134200
H141	H14	0.117500	0.277000	0.117500
C2071	C207	0.865800	0.802500	0.365800
H151	H15	0.882500	0.777000	0.382500
C2081	C208	0.865800	0.302500	0.865800
H161	H16	0.882500	0.277000	0.882500
C2091	C209	0.365800	0.302500	0.365800
H171	H17	0.382500	0.277000	0.382500
C2101	C210	0.865800	0.197500	0.634200
H181	H18	0.882500	0.223000	0.617500
C2111	C211	0.865800	0.697500	0.134200
H191	H19	0.882500	0.723000	0.117500
C2121	C212	0.365800	0.197500	0.134200
H201	H20	0.382500	0.223000	0.117500
C2131	C213	0.365800	0.134200	0.197500
H211	H21	0.382500	0.117500	0.223000
C2141	C214	0.365800	0.634200	0.697500
H221	H22	0.382500	0.617500	0.723000
C2151	C215	0.634200	0.134200	0.802500
H231	H23	0.617500	0.117500	0.777000
C2161	C216	0.634200	0.634200	0.302500
H241	H24	0.617500	0.617500	0.277000
C2171	C217	0.134200	0.134200	0.302500
H251	H25	0.117500	0.117500	0.277000
C2181	C218	0.365800	0.865800	0.802500
H261	H26	0.382500	0.882500	0.777000
C2191	C219	0.365800	0.365800	0.302500
H271	H27	0.382500	0.382500	0.277000
C2201	C220	0.634200	0.865800	0.197500
H281	H28	0.617500	0.882500	0.223000
C2211	C221	0.634200	0.365800	0.697500
H291	H29	0.617500	0.382500	0.723000
C2221	C222	0.134200	0.365800	0.197500
H301	H30	0.117500	0.382500	0.223000
C2231	C223	0.365800	0.197500	0.865800
H311	H31	0.382500	0.223000	0.882500
C2241	C224	0.365800	0.697500	0.365800
H321	H32	0.382500	0.723000	0.382500
C2251	C225	0.634200	0.802500	0.865800
H331	H33	0.617500	0.777000	0.882500
C2261	C226	0.634200	0.302500	0.365800
H341	H34	0.617500	0.277000	0.382500
C2271	C227	0.134200	0.802500	0.365800
H351	H35	0.117500	0.777000	0.382500
C2281	C228	0.365800	0.802500	0.134200
H361	H36	0.382500	0.777000	0.117500
C2291	C229	0.365800	0.302500	0.634200
H371	H37	0.382500	0.277000	0.617500
C2301	C230	0.634200	0.197500	0.134200
H381	H38	0.617500	0.223000	0.117500
C2311	C231	0.634200	0.697500	0.634200
H391	H39	0.617500	0.723000	0.617500
C2321	C232	0.134200	0.697500	0.134200
H401	H40	0.117500	0.723000	0.117500
C2331	C233	0.197500	0.134200	0.634200
H411	H41	0.223000	0.117500	0.617500
C2341	C234	0.697500	0.134200	0.134200
H421	H42	0.723000	0.117500	0.117500
C2351	C235	0.802500	0.134200	0.365800
H431	H43	0.777000	0.117500	0.382500
C2361	C236	0.302500	0.134200	0.865800
H441	H44	0.277000	0.117500	0.882500
C2371	C237	0.802500	0.865800	0.634200
H451	H45	0.777000	0.882500	0.617500
C2381	C238	0.802500	0.365800	0.134200
H461	H46	0.777000	0.382500	0.117500
C2391	C239	0.302500	0.865800	0.134200
H471	H47	0.277000	0.882500	0.117500
C2401	C240	0.197500	0.865800	0.365800
H481	H48	0.223000	0.882500	0.382500
C2411	C241	0.697500	0.865800	0.865800
H491	H49	0.723000	0.882500	0.882500
C2421	C242	0.697500	0.365800	0.365800
H501	H50	0.723000	0.382500	0.382500
C2431	C243	0.134200	0.365800	0.802500
H511	H51	0.117500	0.382500	0.777000
C2441	C244	0.134200	0.865800	0.302500
H521	H52	0.117500	0.882500	0.277000
C2451	C245	0.134200	0.634200	0.197500
H531	H53	0.117500	0.617500	0.223000
C2461	C246	0.134200	0.134200	0.697500
H541	H54	0.117500	0.117500	0.723000
C2471	C247	0.865800	0.365800	0.197500
H551	H55	0.882500	0.382500	0.223000
C2481	C248	0.865800	0.865800	0.697500
H561	H56	0.882500	0.882500	0.723000
C2491	C249	0.365800	0.365800	0.697500
H571	H57	0.382500	0.382500	0.723000
C2501	C250	0.865800	0.634200	0.802500
H581	H58	0.882500	0.617500	0.777000
C2511	C251	0.865800	0.134200	0.302500
H591	H59	0.882500	0.117500	0.277000
C2521	C252	0.365800	0.134200	0.802500
H601	H60	0.382500	0.117500	0.777000
C2531	C253	0.802500	0.634200	0.865800
H611	H61	0.777000	0.617500	0.882500
C2541	C254	0.302500	0.634200	0.365800
H621	H62	0.277000	0.617500	0.382500
C2551	C255	0.197500	0.365800	0.865800
H631	H63	0.223000	0.382500	0.882500
C2561	C256	0.197500	0.634200	0.134200
H641	H64	0.223000	0.617500	0.117500
C2571	C257	0.697500	0.634200	0.634200
H651	H65	0.723000	0.617500	0.617500
C2581	C258	0.302500	0.365800	0.634200
H661	H66	0.277000	0.382500	0.617500
C2591	C259	0.865800	0.802500	0.634200
H671	H67	0.882500	0.777000	0.617500
C2601	C260	0.865800	0.302500	0.134200
H681	H68	0.882500	0.277000	0.117500
C2611	C261	0.865800	0.197500	0.365800
H691	H69	0.882500	0.223000	0.382500
C2621	C262	0.865800	0.697500	0.865800
H701	H70	0.882500	0.723000	0.882500
C2631	C263	0.134200	0.197500	0.634200
H711	H71	0.117500	0.223000	0.617500
C2641	C264	0.134200	0.302500	0.865800
H721	H72	0.117500	0.277000	0.882500
C2651	C265	0.634200	0.865800	0.802500
H731	H73	0.617500	0.882500	0.777000
C2661	C266	0.634200	0.365800	0.302500
H741	H74	0.617500	0.382500	0.277000
C2671	C267	0.365800	0.865800	0.197500
H751	H75	0.382500	0.882500	0.223000
C2681	C268	0.634200	0.134200	0.197500
H761	H76	0.617500	0.117500	0.223000
C2691	C269	0.634200	0.634200	0.697500
H771	H77	0.617500	0.617500	0.723000
C2701	C270	0.365800	0.634200	0.302500
H781	H78	0.382500	0.617500	0.277000
C2711	C271	0.634200	0.802500	0.134200
H791	H79	0.617500	0.777000	0.117500
C2721	C272	0.634200	0.302500	0.634200
H801	H80	0.617500	0.277000	0.617500
C2731	C273	0.365800	0.697500	0.634200
H811	H81	0.382500	0.723000	0.617500
C2741	C274	0.634200	0.197500	0.865800
H821	H82	0.617500	0.223000	0.882500
C2751	C275	0.634200	0.697500	0.365800
H831	H83	0.617500	0.723000	0.382500
C2761	C276	0.365800	0.802500	0.865800
H841	H84	0.382500	0.777000	0.882500
C2771	C277	0.802500	0.865800	0.365800
H851	H85	0.777000	0.882500	0.382500
C2781	C278	0.302500	0.865800	0.865800
H861	H86	0.277000	0.882500	0.882500
C2791	C279	0.197500	0.865800	0.634200
H871	H87	0.223000	0.882500	0.617500
C2801	C280	0.697500	0.865800	0.134200
H881	H88	0.723000	0.882500	0.117500
C2811	C281	0.697500	0.134200	0.865800
H891	H89	0.723000	0.117500	0.882500
C2821	C282	0.802500	0.134200	0.634200
H901	H90	0.777000	0.117500	0.617500
C2831	C283	0.865800	0.634200	0.197500
H911	H91	0.882500	0.617500	0.223000
C2841	C284	0.865800	0.134200	0.697500
H921	H92	0.882500	0.117500	0.723000
C2851	C285	0.865800	0.365800	0.802500
H931	H93	0.882500	0.382500	0.777000
C2861	C286	0.865800	0.865800	0.302500
H941	H94	0.882500	0.882500	0.277000
C2871	C287	0.134200	0.634200	0.802500
H951	H95	0.117500	0.617500	0.777000
C2881	C288	0.134200	0.865800	0.697500
H961	H96	0.117500	0.882500	0.723000
