data_ZOTKAW_clean_PM
_symmetry_space_group_name_H-M	'P1'
_cell_length_a	10.013000
_cell_length_b	13.138000
_cell_length_c	33.947000
_cell_angle_alpha	90.000000
_cell_angle_beta	90.000000
_cell_angle_gamma	90.000000
_symmetry_Int_Tables_number 1

loop_
_symmetry_equiv_pos_as_xyz
'x,y,z'

loop_
_atom_site_label
_atom_site_type_symbol
_atom_site_fract_x
_atom_site_fract_y
_atom_site_fract_z
Er11	Er1	0.468090	0.750000	0.750000
Er21	Er2	0.531910	0.250000	0.250000
Er31	Er3	0.031910	0.250000	0.250000
Er41	Er4	0.968090	0.750000	0.750000
H11	H1	0.489600	0.649700	0.580400
H21	H2	0.947200	0.586600	0.422700
H31	H3	0.760100	0.611700	0.649300
H41	H4	0.978600	0.606600	0.490000
H51	H5	0.638900	0.719000	0.108300
H61	H6	0.178100	0.947200	0.589500
H71	H7	0.007100	0.103300	0.592100
H81	H8	0.521400	0.106600	0.510000
H91	H9	0.478600	0.606600	0.010000
H101	H10	0.552800	0.086600	0.577300
H111	H11	0.947200	0.913400	0.077300
H121	H12	0.548600	0.828300	0.625000
H131	H13	0.048600	0.828300	0.875000
H141	H14	0.554200	0.843200	0.332700
H151	H15	0.492900	0.603300	0.407900
H161	H16	0.021400	0.106600	0.990000
H171	H17	0.731500	0.915900	0.103700
H181	H18	0.548600	0.671700	0.875000
H191	H19	0.553600	0.334800	0.352200
H201	H20	0.255600	0.371500	0.005700
H211	H21	0.321900	0.052800	0.089500
H221	H22	0.946400	0.665200	0.852200
H231	H23	0.407100	0.155200	0.441700
H241	H24	0.489600	0.850300	0.919600
H251	H25	0.202400	0.131200	0.031800
H261	H26	0.702400	0.368800	0.031800
H271	H27	0.054200	0.843200	0.167300
H281	H28	0.554200	0.656800	0.167300
H291	H29	0.553600	0.165200	0.147800
H301	H30	0.054200	0.656800	0.332700
H311	H31	0.907100	0.155200	0.058300
H321	H32	0.239900	0.111700	0.149300
H331	H33	0.760100	0.888300	0.850700
H341	H34	0.268500	0.415900	0.603700
H351	H35	0.260100	0.611700	0.850700
H361	H36	0.138900	0.781000	0.108300
H371	H37	0.592900	0.655200	0.941700
H381	H38	0.092900	0.655200	0.558300
H391	H39	0.978600	0.893400	0.010000
H401	H40	0.092900	0.844800	0.941700
H411	H41	0.510400	0.350300	0.419600
H421	H42	0.907100	0.344800	0.441700
H431	H43	0.510400	0.149700	0.080400
H441	H44	0.755600	0.371500	0.494300
H451	H45	0.361100	0.281000	0.891700
H461	H46	0.244400	0.871500	0.994300
H471	H47	0.447200	0.913400	0.422700
H481	H48	0.178100	0.552800	0.910500
H491	H49	0.297600	0.631200	0.968200
H501	H50	0.492900	0.896700	0.092100
H511	H51	0.478600	0.893400	0.490000
H521	H52	0.521400	0.393400	0.990000
H531	H53	0.007100	0.396700	0.907900
H541	H54	0.244400	0.628500	0.505700
H551	H55	0.048600	0.671700	0.625000
H561	H56	0.951400	0.171700	0.125000
H571	H57	0.010400	0.350300	0.080400
H581	H58	0.744400	0.871500	0.505700
H591	H59	0.447200	0.586600	0.077300
H601	H60	0.951400	0.328300	0.375000
H611	H61	0.768500	0.415900	0.896300
H621	H62	0.945800	0.156800	0.832700
H631	H63	0.507100	0.103300	0.907900
H641	H64	0.946400	0.834800	0.647800
H651	H65	0.260100	0.888300	0.649300
H661	H66	0.592900	0.844800	0.558300
H671	H67	0.021400	0.393400	0.510000
H681	H68	0.321900	0.447200	0.410500
H691	H69	0.989600	0.850300	0.580400
H701	H70	0.861100	0.219000	0.891700
H711	H71	0.507100	0.396700	0.592100
H721	H72	0.138900	0.719000	0.391700
H731	H73	0.797600	0.868800	0.968200
H741	H74	0.268500	0.084100	0.896300
H751	H75	0.297600	0.868800	0.531800
H761	H76	0.255600	0.128500	0.494300
H771	H77	0.239900	0.388300	0.350700
H781	H78	0.797600	0.631200	0.531800
H791	H79	0.992900	0.603300	0.092100
H801	H80	0.821900	0.052800	0.410500
H811	H81	0.739900	0.388300	0.149300
H821	H82	0.861100	0.281000	0.608300
H831	H83	0.446400	0.834800	0.852200
H841	H84	0.755600	0.128500	0.005700
H851	H85	0.744400	0.628500	0.994300
H861	H86	0.451400	0.328300	0.125000
H871	H87	0.446400	0.665200	0.647800
H881	H88	0.202400	0.368800	0.468200
H891	H89	0.231500	0.915900	0.396300
H901	H90	0.053600	0.334800	0.147800
H911	H91	0.231500	0.584100	0.103700
H921	H92	0.989600	0.649700	0.919600
H931	H93	0.445800	0.343200	0.832700
H941	H94	0.052800	0.413400	0.577300
H951	H95	0.407100	0.344800	0.058300
H961	H96	0.678100	0.947200	0.910500
H971	H97	0.451400	0.171700	0.375000
H981	H98	0.638900	0.781000	0.391700
H991	H99	0.678100	0.552800	0.589500
H1001	H100	0.053600	0.165200	0.352200
H1011	H101	0.821900	0.447200	0.089500
H1021	H102	0.992900	0.896700	0.407900
H1031	H103	0.768500	0.084100	0.603700
H1041	H104	0.731500	0.584100	0.396300
H1051	H105	0.361100	0.219000	0.608300
H1061	H106	0.010400	0.149700	0.419600
H1071	H107	0.552800	0.413400	0.922700
H1081	H108	0.945800	0.343200	0.667300
H1091	H109	0.739900	0.111700	0.350700
H1101	H110	0.445800	0.156800	0.667300
H1111	H111	0.702400	0.131200	0.468200
H1121	H112	0.052800	0.086600	0.922700
C11	C1	0.361700	0.167400	0.383920
C21	C2	0.125800	0.336200	0.129600
C31	C3	0.664800	0.657500	0.923460
C41	C4	0.658100	0.651200	0.116230
C51	C5	0.399700	0.880100	0.042640
C61	C6	0.135600	0.608100	0.051440
C71	C7	0.718600	0.455300	0.140820
C81	C8	0.361700	0.332600	0.116080
C91	C9	0.600300	0.380100	0.542640
C101	C10	0.152500	0.878800	0.488960
C111	C11	0.625800	0.336200	0.370400
C121	C12	0.918900	0.977900	0.797790
C131	C13	0.255800	0.328700	0.143310
C141	C14	0.899700	0.619900	0.042640
C151	C15	0.364400	0.108100	0.948560
C161	C16	0.860500	0.016700	0.835630
C171	C17	0.283400	0.621500	0.995600
C181	C18	0.890600	0.385600	0.651480
C191	C19	0.581100	0.022100	0.297790
C201	C20	0.861700	0.332600	0.383920
C211	C21	0.364400	0.391900	0.551440
C221	C22	0.244200	0.828700	0.856690
C231	C23	0.109300	0.392500	0.520500
C241	C24	0.732900	0.990100	0.894800
C251	C25	0.763900	0.411900	0.592170
C261	C26	0.781400	0.955300	0.859180
C271	C27	0.795900	0.849300	0.562820
C281	C28	0.872100	0.905200	0.060500
C291	C29	0.281400	0.544700	0.859180
C301	C30	0.427500	0.868500	0.000060
C311	C31	0.718600	0.044700	0.359180
C321	C32	0.139500	0.983300	0.164370
C331	C33	0.072500	0.368500	0.999940
C341	C34	0.390700	0.607500	0.020500
C351	C35	0.390700	0.892500	0.479500
C361	C36	0.335200	0.342500	0.076540
C371	C37	0.284900	0.310300	0.185950
C381	C38	0.639500	0.516700	0.164370
C391	C39	0.609400	0.614400	0.151480
C401	C40	0.164800	0.657500	0.576540
C411	C41	0.267100	0.490100	0.394800
C421	C42	0.374200	0.836200	0.870400
C431	C43	0.847500	0.378800	0.988960
C441	C44	0.255800	0.171300	0.356690
C451	C45	0.255500	0.094100	0.923700
C461	C46	0.635600	0.608100	0.448560
C471	C47	0.164800	0.842500	0.923460
C481	C48	0.841900	0.348800	0.616230
C491	C49	0.716600	0.121500	0.495600
C501	C50	0.704100	0.150700	0.062820
C511	C51	0.427500	0.631500	0.499940
C521	C52	0.400100	0.846000	0.910550
C531	C53	0.081100	0.022100	0.202210
C541	C54	0.236100	0.588100	0.407830
C551	C55	0.784900	0.310300	0.314050
C561	C56	0.099900	0.346000	0.089450
C571	C57	0.599900	0.346000	0.410550
C581	C58	0.755800	0.171300	0.143310
C591	C59	0.781400	0.544700	0.640820
C601	C60	0.874200	0.663800	0.870400
C611	C61	0.784900	0.189700	0.185950
C621	C62	0.284900	0.189700	0.314050
C631	C63	0.847500	0.121200	0.511040
C641	C64	0.232900	0.509900	0.894800
C651	C65	0.218600	0.455300	0.359180
C661	C66	0.652500	0.878800	0.011040
C671	C67	0.638300	0.832600	0.616080
C681	C68	0.767100	0.009900	0.394800
C691	C69	0.400100	0.654000	0.589450
C701	C70	0.232900	0.990100	0.605200
C711	C71	0.874200	0.836200	0.629600
C721	C72	0.109400	0.885600	0.151480
C731	C73	0.244200	0.671300	0.643310
C741	C74	0.216600	0.121500	0.004400
C751	C75	0.609400	0.885600	0.348520
C761	C76	0.864400	0.391900	0.948560
C771	C77	0.783400	0.878500	0.995600
C781	C78	0.263900	0.088100	0.592170
C791	C79	0.715100	0.810300	0.685950
C801	C80	0.418900	0.522100	0.797790
C811	C81	0.372100	0.905200	0.439500
C821	C82	0.841900	0.151200	0.883770
C831	C83	0.627900	0.094800	0.560500
C841	C84	0.658100	0.848800	0.383770
C851	C85	0.732900	0.509900	0.605200
C861	C86	0.900100	0.846000	0.589450
C871	C87	0.744500	0.905900	0.076300
C881	C88	0.295900	0.650700	0.562820
C891	C89	0.755800	0.328700	0.356690
C901	C90	0.715100	0.689700	0.814050
C911	C91	0.390600	0.385600	0.848520
C921	C92	0.639500	0.983300	0.335630
C931	C93	0.138300	0.667400	0.616080
C941	C94	0.127900	0.094800	0.939500
C951	C95	0.081100	0.477900	0.297790
C961	C96	0.267100	0.009900	0.105200
C971	C97	0.236100	0.911900	0.092170
C981	C98	0.581100	0.477900	0.202210
C991	C99	0.281400	0.955300	0.640820
C1001	C100	0.783400	0.621500	0.504400
C1011	C101	0.341900	0.348800	0.883770
C1021	C102	0.625800	0.163800	0.129600
C1031	C103	0.835200	0.342500	0.423460
C1041	C104	0.861700	0.167400	0.116080
C1051	C105	0.216600	0.378500	0.495600
C1061	C106	0.100300	0.119900	0.542640
C1071	C107	0.927500	0.631500	0.000060
C1081	C108	0.609300	0.392500	0.979500
C1091	C109	0.215100	0.689700	0.685950
C1101	C110	0.158100	0.848800	0.116230
C1111	C111	0.283400	0.878500	0.504400
C1121	C112	0.599900	0.154000	0.089450
C1131	C113	0.360500	0.016700	0.664370
C1141	C114	0.638300	0.667400	0.883920
C1151	C115	0.204100	0.150700	0.437180
C1161	C116	0.399700	0.619900	0.457360
C1171	C117	0.109300	0.107500	0.979500
C1181	C118	0.763900	0.088100	0.907830
C1191	C119	0.341900	0.151200	0.616230
C1201	C120	0.347500	0.378800	0.511040
C1211	C121	0.100300	0.380100	0.957360
C1221	C122	0.572500	0.131500	0.999940
C1231	C123	0.704100	0.349300	0.437180
C1241	C124	0.244500	0.905900	0.423700
C1251	C125	0.716600	0.378500	0.004400
C1261	C126	0.418900	0.977900	0.702210
C1271	C127	0.390600	0.114400	0.651480
C1281	C128	0.890700	0.892500	0.020500
C1291	C129	0.218600	0.044700	0.140820
C1301	C130	0.918900	0.522100	0.702210
C1311	C131	0.139500	0.516700	0.335630
C1321	C132	0.109400	0.614400	0.348520
C1331	C133	0.263900	0.411900	0.907830
C1341	C134	0.652500	0.621200	0.488960
C1351	C135	0.158100	0.651200	0.383770
C1361	C136	0.835200	0.157500	0.076540
C1371	C137	0.864400	0.108100	0.551440
C1381	C138	0.152500	0.621200	0.011040
C1391	C139	0.600300	0.119900	0.957360
C1401	C140	0.135600	0.891900	0.448560
C1411	C141	0.360500	0.483300	0.835630
C1421	C142	0.755500	0.094100	0.576300
C1431	C143	0.890600	0.114400	0.848520
C1441	C144	0.335200	0.157500	0.423460
C1451	C145	0.127900	0.405200	0.560500
C1461	C146	0.664800	0.842500	0.576540
C1471	C147	0.204100	0.349300	0.062820
C1481	C148	0.244500	0.594100	0.076300
C1491	C149	0.900100	0.654000	0.910550
C1501	C150	0.927500	0.868500	0.499940
C1511	C151	0.609300	0.107500	0.520500
C1521	C152	0.872100	0.594800	0.439500
C1531	C153	0.627900	0.405200	0.939500
C1541	C154	0.767100	0.490100	0.105200
C1551	C155	0.255500	0.405900	0.576300
C1561	C156	0.374200	0.663800	0.629600
C1571	C157	0.138300	0.832600	0.883920
C1581	C158	0.372100	0.594800	0.060500
C1591	C159	0.635600	0.891900	0.051440
C1601	C160	0.744200	0.671300	0.856690
C1611	C161	0.795900	0.650700	0.937180
C1621	C162	0.860500	0.483300	0.664370
C1631	C163	0.215100	0.810300	0.814050
C1641	C164	0.125800	0.163800	0.370400
C1651	C165	0.347500	0.121200	0.988960
C1661	C166	0.736100	0.911900	0.407830
C1671	C167	0.899700	0.880100	0.457360
C1681	C168	0.755500	0.405900	0.923700
C1691	C169	0.072500	0.131500	0.500060
C1701	C170	0.099900	0.154000	0.410550
C1711	C171	0.295900	0.849300	0.937180
C1721	C172	0.744500	0.594100	0.423700
C1731	C173	0.572500	0.368500	0.500060
C1741	C174	0.890700	0.607500	0.479500
C1751	C175	0.744200	0.828700	0.643310
C1761	C176	0.736100	0.588100	0.092170
N11	N1	0.494500	0.109400	0.933490
N21	N2	0.269000	0.604100	0.446800
N31	N3	0.453500	0.367100	0.484930
N41	N4	0.505500	0.609400	0.433490
N51	N5	0.314200	0.639300	0.521880
N61	N6	0.685800	0.139300	0.021880
N71	N7	0.046500	0.867100	0.515070
N81	N8	0.269000	0.895900	0.053200
N91	N9	0.814200	0.639300	0.978120
N101	N10	0.185800	0.360700	0.021880
N111	N11	0.005500	0.890600	0.433490
N121	N12	0.231000	0.104100	0.553200
N131	N13	0.731000	0.395900	0.553200
N141	N14	0.685800	0.360700	0.478120
N151	N15	0.731000	0.104100	0.946800
N161	N16	0.994500	0.109400	0.566510
N171	N17	0.546500	0.867100	0.984930
N181	N18	0.231000	0.395900	0.946800
N191	N19	0.769000	0.604100	0.053200
N201	N20	0.314200	0.860700	0.978120
N211	N21	0.005500	0.609400	0.066510
N221	N22	0.814200	0.860700	0.521880
N231	N23	0.546500	0.632900	0.515070
N241	N24	0.953500	0.132900	0.484930
N251	N25	0.046500	0.632900	0.984930
N261	N26	0.994500	0.390600	0.933490
N271	N27	0.453500	0.132900	0.015070
N281	N28	0.185800	0.139300	0.478120
N291	N29	0.494500	0.390600	0.566510
N301	N30	0.505500	0.890600	0.066510
N311	N31	0.769000	0.895900	0.446800
N321	N32	0.953500	0.367100	0.015070
O11	O1	0.098900	0.790900	0.804060
O21	O2	0.369200	0.896500	0.716380
O31	O3	0.486000	0.525700	0.216930
O41	O4	0.901100	0.290900	0.304060
O51	O5	0.598900	0.709100	0.804060
O61	O6	0.811800	0.815900	0.709610
O71	O7	0.130800	0.396500	0.283620
O81	O8	0.514000	0.025700	0.716930
O91	O9	0.311800	0.684100	0.709610
O101	O10	0.986000	0.525700	0.283070
O111	O11	0.369200	0.603500	0.783620
O121	O12	0.130800	0.103500	0.216380
O131	O13	0.486000	0.974300	0.283070
O141	O14	0.014000	0.474300	0.716930
O151	O15	0.401100	0.290900	0.195940
O161	O16	0.869200	0.603500	0.716380
O171	O17	0.630800	0.396500	0.216380
O181	O18	0.986000	0.974300	0.216930
O191	O19	0.688200	0.184100	0.209610
O201	O20	0.098900	0.709100	0.695940
O211	O21	0.688200	0.315900	0.290390
O221	O22	0.630800	0.103500	0.283620
O231	O23	0.869200	0.896500	0.783620
O241	O24	0.188200	0.184100	0.290390
O251	O25	0.811800	0.684100	0.790390
O261	O26	0.401100	0.209100	0.304060
O271	O27	0.311800	0.815900	0.790390
O281	O28	0.014000	0.025700	0.783070
O291	O29	0.514000	0.474300	0.783070
O301	O30	0.598900	0.790900	0.695940
O311	O31	0.901100	0.209100	0.195940
O321	O32	0.188200	0.315900	0.209610
