data_ZOXFAV_charged_PM
_symmetry_space_group_name_H-M	'P1'
_cell_length_a	11.629000
_cell_length_b	12.380000
_cell_length_c	17.902000
_cell_angle_alpha	90.000000
_cell_angle_beta	90.000000
_cell_angle_gamma	109.051000
_symmetry_Int_Tables_number 1

loop_
_symmetry_equiv_pos_as_xyz
'x,y,z'

loop_
_atom_site_label
_atom_site_type_symbol
_atom_site_fract_x
_atom_site_fract_y
_atom_site_fract_z
Cd11	Cd1	0.500000	0.500000	0.500000
Cd21	Cd2	0.000000	0.000000	0.000000
H11	H1	0.725600	0.541400	0.357900
H21	H2	0.536100	0.097900	0.417900
H31	H3	0.261200	0.574500	0.444800
H41	H4	0.528100	0.768700	0.999300
H51	H5	0.794800	0.327700	0.792300
H61	H6	0.268600	0.185500	0.945100
H71	H7	0.036100	0.597900	0.082100
H81	H8	0.999000	0.875600	0.172600
H91	H9	0.873800	0.139100	0.264700
H101	H10	0.620100	0.808900	0.768600
H111	H11	0.294800	0.827700	0.707700
H121	H12	0.591300	0.106200	0.079000
H131	H13	0.738800	0.425500	0.555200
H141	H14	0.975000	0.914400	0.807300
H151	H15	0.525000	0.585600	0.307300
H161	H16	0.003800	0.720600	0.982900
H171	H17	0.373800	0.639100	0.235300
H181	H18	0.205200	0.672300	0.207700
H191	H19	0.471900	0.231300	0.000700
H201	H20	0.379900	0.191100	0.231400
H211	H21	0.501000	0.624400	0.672600
H221	H22	0.238800	0.925500	0.944800
H231	H23	0.963900	0.402100	0.917900
H241	H24	0.274400	0.458600	0.642100
H251	H25	0.126200	0.860900	0.735300
H261	H26	0.731400	0.814500	0.054900
H271	H27	0.879900	0.691100	0.268600
H281	H28	0.626200	0.360900	0.764700
H291	H29	0.091300	0.606200	0.421000
H301	H30	0.971900	0.731300	0.499300
H311	H31	0.408700	0.893800	0.921000
H321	H32	0.231400	0.314500	0.445100
H331	H33	0.705200	0.172300	0.292300
H341	H34	0.503800	0.220600	0.517100
H351	H35	0.001000	0.124400	0.827400
H361	H36	0.028100	0.268700	0.500700
H371	H37	0.496200	0.779400	0.482900
H381	H38	0.908700	0.393800	0.579000
H391	H39	0.025000	0.085600	0.192700
H401	H40	0.761200	0.074500	0.055200
H411	H41	0.499000	0.375600	0.327400
H421	H42	0.463900	0.902100	0.582100
H431	H43	0.996200	0.279400	0.017100
H441	H44	0.774400	0.958600	0.857900
H451	H45	0.768600	0.685500	0.554900
H461	H46	0.120100	0.308900	0.731400
H471	H47	0.225600	0.041400	0.142100
H481	H48	0.475000	0.414400	0.692700
C11	C1	0.527900	0.852300	0.852880
C21	C2	0.952000	0.090000	0.174050
C31	C3	0.460400	0.813500	0.727750
C41	C4	0.239200	0.417100	0.599960
C51	C5	0.951700	0.677500	0.280820
C61	C6	0.601500	0.811600	0.977610
C71	C7	0.507000	0.236700	0.466210
C81	C8	0.739200	0.917100	0.900040
C91	C9	0.146700	0.666100	0.244350
C101	C10	0.975200	0.331700	0.911750
C111	C11	0.539600	0.186500	0.272250
C121	C12	0.808000	0.083600	0.098360
C131	C13	0.692000	0.416400	0.598360
C141	C14	0.785600	0.661900	0.508090
C151	C15	0.646700	0.166100	0.255650
C161	C16	0.164800	0.636300	0.316860
C171	C17	0.369200	0.619800	0.285710
C181	C18	0.353300	0.833900	0.744350
C191	C19	0.472100	0.147700	0.147120
C201	C20	0.869200	0.119800	0.214290
C211	C21	0.630800	0.380200	0.714290
C221	C22	0.192000	0.916400	0.901640
C231	C23	0.495900	0.677700	0.637290
C241	C24	0.524800	0.168300	0.411750
C251	C25	0.101500	0.311600	0.522390
C261	C26	0.972100	0.647700	0.352880
C271	C27	0.475200	0.831700	0.588250
C281	C28	0.760800	0.582900	0.400040
C291	C29	0.039600	0.686500	0.227750
C301	C30	0.335200	0.863700	0.816860
C311	C31	0.493000	0.763300	0.533790
C321	C32	0.004100	0.822300	0.137290
C331	C33	0.578500	0.126400	0.127570
C341	C34	0.007000	0.736700	0.033790
C351	C35	0.452000	0.590000	0.325950
C361	C36	0.504100	0.322300	0.362710
C371	C37	0.995900	0.177700	0.862710
C381	C38	0.078500	0.626400	0.372430
C391	C39	0.421500	0.873600	0.872430
C401	C40	0.548300	0.822500	0.780820
C411	C41	0.285600	0.161900	0.991910
C421	C42	0.835200	0.363700	0.683140
C431	C43	0.853300	0.333900	0.755650
C441	C44	0.398500	0.188400	0.022390
C451	C45	0.024800	0.668300	0.088250
C461	C46	0.548000	0.410000	0.674050
C471	C47	0.451700	0.177500	0.219180
C481	C48	0.714400	0.838100	0.008090
C491	C49	0.993000	0.263300	0.966210
C501	C50	0.898500	0.688400	0.477610
C511	C51	0.048000	0.910000	0.825950
C521	C52	0.130800	0.880200	0.785710
C531	C53	0.214400	0.338100	0.491910
C541	C54	0.308000	0.583600	0.401640
C551	C55	0.048300	0.322500	0.719180
C561	C56	0.664800	0.136300	0.183140
C571	C57	0.260800	0.082900	0.099960
C581	C58	0.027900	0.352300	0.647120
C591	C59	0.960400	0.313500	0.772250
C601	C60	0.921500	0.373600	0.627570
N11	N1	0.724320	0.384160	0.665310
N21	N2	0.881470	0.638610	0.408210
N31	N3	0.005800	0.165960	0.934900
N41	N4	0.618530	0.861390	0.908210
N51	N5	0.586620	0.433040	0.601890
N61	N6	0.505800	0.665960	0.565100
N71	N7	0.977210	0.276770	0.846060
N81	N8	0.522790	0.223230	0.346060
N91	N9	0.086620	0.933040	0.898110
N101	N10	0.299990	0.404840	0.540580
N111	N11	0.477210	0.776770	0.653940
N121	N12	0.118530	0.361390	0.591790
N131	N13	0.275680	0.615840	0.334690
N141	N14	0.799990	0.904840	0.959420
N151	N15	0.494200	0.334040	0.434900
N161	N16	0.413380	0.566960	0.398110
N171	N17	0.381470	0.138610	0.091790
N181	N18	0.224320	0.884160	0.834690
N191	N19	0.913380	0.066960	0.101890
N201	N20	0.022790	0.723230	0.153940
N211	N21	0.700010	0.595160	0.459420
N221	N22	0.775680	0.115840	0.165310
N231	N23	0.200010	0.095160	0.040580
N241	N24	0.994200	0.834040	0.065100
N251	N25	0.139000	0.674300	0.607780
O11	O1	0.120200	0.768100	0.610940
O21	O2	0.143700	0.629200	0.547410
O31	O3	0.153100	0.627400	0.666520
N261	N26	0.639000	0.174300	0.892220
O41	O4	0.620200	0.268100	0.889060
O51	O5	0.643700	0.129200	0.952590
O61	O6	0.653100	0.127400	0.833480
N271	N27	0.861000	0.325700	0.392220
O71	O7	0.856300	0.370800	0.452590
O81	O8	0.846900	0.372600	0.333480
O91	O9	0.879800	0.231900	0.389060
N281	N28	0.361000	0.825700	0.107780
O101	O10	0.346900	0.872600	0.166520
O111	O11	0.356300	0.870800	0.047410
O121	O12	0.379800	0.731900	0.110940
