data_ZOXGUQ_clean_PM
_symmetry_space_group_name_H-M	'P1'
_cell_length_a	22.128000
_cell_length_b	14.581700
_cell_length_c	28.083000
_cell_angle_alpha	90.000000
_cell_angle_beta	116.316000
_cell_angle_gamma	90.000000
_symmetry_Int_Tables_number 1

loop_
_symmetry_equiv_pos_as_xyz
'x,y,z'

loop_
_atom_site_label
_atom_site_type_symbol
_atom_site_fract_x
_atom_site_fract_y
_atom_site_fract_z
Ni11	Ni1	0.746000	0.328400	0.744280
Ni21	Ni2	0.781020	0.505770	0.460590
O11	O1	0.826880	0.335010	0.665390
O21	O2	0.776920	0.417070	0.704390
O31	O3	0.786980	0.739620	0.715970
O41	O4	0.835710	0.824980	0.677180
O51	O5	0.216090	0.572180	0.651460
O61	O6	0.152780	0.511300	0.572110
O71	O7	0.864780	0.550380	0.527550
O81	O8	0.911880	0.411900	0.549900
N11	N1	0.720330	0.530900	0.497170
N21	N2	0.631790	0.531900	0.513530
N31	N3	0.842410	0.329400	0.807900
N41	N4	0.927200	0.300700	0.886160
N51	N5	0.067750	0.201000	0.101080
N61	N6	0.151090	0.175500	0.180560
C11	C1	0.843600	0.496800	0.673770
C21	C2	0.820600	0.579400	0.684210
H11	H1	0.786100	0.579500	0.694600
C31	C3	0.848800	0.662400	0.679240
C41	C4	0.901300	0.660900	0.664440
H21	H2	0.920800	0.715800	0.661500
C51	C5	0.924800	0.579300	0.654090
C61	C6	0.984000	0.575500	0.641290
C71	C7	0.046900	0.606400	0.679370
H31	H3	0.050500	0.633600	0.710500
C81	C8	0.103700	0.596700	0.670880
H41	H4	0.145500	0.616300	0.696600
C91	C9	0.098500	0.557700	0.624020
C101	C10	0.036200	0.527200	0.586220
H51	H5	0.032600	0.500500	0.555000
C111	C11	0.978600	0.536300	0.594770
C121	C12	0.813300	0.409600	0.681190
C131	C13	0.822200	0.749300	0.691680
C141	C14	0.159900	0.546400	0.614640
C151	C15	0.913000	0.496300	0.554190
C161	C16	0.684100	0.569000	0.556700
H61	H6	0.683200	0.591100	0.587400
C171	C17	0.737800	0.567200	0.545700
C181	C18	0.656600	0.509500	0.479200
H71	H7	0.631400	0.482000	0.446500
C191	C19	0.513800	0.499200	0.456840
H81	H8	0.523300	0.498500	0.427700
C201	C20	0.564700	0.516600	0.506590
C211	C21	0.551500	0.517500	0.550360
H91	H9	0.585900	0.529100	0.584100
C221	C22	0.954400	0.323900	0.852730
H101	H10	0.000100	0.327000	0.861200
C231	C23	0.902600	0.341400	0.805220
H111	H11	0.906700	0.359000	0.775000
C241	C24	0.859700	0.305200	0.857390
H121	H12	0.829100	0.292800	0.870900
C251	C25	0.963300	0.275600	0.941030
C261	C26	0.934700	0.292900	0.974930
C271	C27	0.033000	0.226400	0.046180
C281	C28	0.061300	0.212100	0.012080
H131	H13	0.104000	0.186100	0.024500
C291	C29	0.026200	0.236300	0.959250
H141	H14	0.045000	0.226000	0.936000
C301	C30	0.039300	0.174000	0.133350
H151	H15	0.993600	0.167700	0.123900
C311	C31	0.090900	0.158300	0.181400
C321	C32	0.134800	0.200200	0.131000
H161	H16	0.166100	0.215200	0.118400
C331	C33	0.970100	0.267700	0.028360
C341	C34	0.894900	0.498400	0.658210
H171	H17	0.895000	0.331000	0.960900
H181	H18	0.949000	0.286000	0.048200
H191	H19	0.911700	0.450000	0.649800
H201	H20	0.090000	0.144000	0.213200
H211	H21	0.774000	0.585000	0.562000
Ni31	Ni3	0.754000	0.828400	0.755720
Ni41	Ni4	0.718980	0.005770	0.039410
O91	O9	0.673120	0.835010	0.834610
O101	O10	0.723080	0.917070	0.795610
O111	O11	0.713020	0.239620	0.784030
O121	O12	0.664290	0.324980	0.822820
O131	O13	0.283910	0.072180	0.848540
O141	O14	0.347220	0.011300	0.927890
O151	O15	0.635220	0.050380	0.972450
O161	O16	0.588120	0.911900	0.950100
N71	N7	0.779670	0.030900	0.002830
N81	N8	0.868210	0.031900	0.986470
N91	N9	0.657590	0.829400	0.692100
N101	N10	0.572800	0.800700	0.613840
N111	N11	0.432250	0.701000	0.398920
N121	N12	0.348910	0.675500	0.319440
C351	C35	0.656400	0.996800	0.826230
C361	C36	0.679400	0.079400	0.815790
H221	H22	0.713900	0.079500	0.805400
C371	C37	0.651200	0.162400	0.820760
C381	C38	0.598700	0.160900	0.835560
H231	H23	0.579200	0.215800	0.838500
C391	C39	0.575200	0.079300	0.845910
C401	C40	0.516000	0.075500	0.858710
C411	C41	0.453100	0.106400	0.820630
H241	H24	0.449500	0.133600	0.789500
C421	C42	0.396300	0.096700	0.829120
H251	H25	0.354500	0.116300	0.803400
C431	C43	0.401500	0.057700	0.875980
C441	C44	0.463800	0.027200	0.913780
H261	H26	0.467400	0.000500	0.945000
C451	C45	0.521400	0.036300	0.905230
C461	C46	0.686700	0.909600	0.818810
C471	C47	0.677800	0.249300	0.808320
C481	C48	0.340100	0.046400	0.885360
C491	C49	0.587000	0.996300	0.945810
C501	C50	0.815900	0.069000	0.943300
H271	H27	0.816800	0.091100	0.912600
C511	C51	0.762200	0.067200	0.954300
C521	C52	0.843400	0.009500	0.020800
H281	H28	0.868600	0.982000	0.053500
C531	C53	0.986200	0.999200	0.043160
H291	H29	0.976700	0.998500	0.072300
C541	C54	0.935300	0.016600	0.993410
C551	C55	0.948500	0.017500	0.949640
H301	H30	0.914100	0.029100	0.915900
C561	C56	0.545600	0.823900	0.647270
H311	H31	0.499900	0.827000	0.638800
C571	C57	0.597400	0.841400	0.694780
H321	H32	0.593300	0.859000	0.725000
C581	C58	0.640300	0.805200	0.642610
H331	H33	0.670900	0.792800	0.629100
C591	C59	0.536700	0.775600	0.558970
C601	C60	0.565300	0.792900	0.525070
C611	C61	0.467000	0.726400	0.453820
C621	C62	0.438700	0.712100	0.487920
H341	H34	0.396000	0.686100	0.475500
C631	C63	0.473800	0.736300	0.540750
H351	H35	0.455000	0.726000	0.564000
C641	C64	0.460700	0.674000	0.366650
H361	H36	0.506400	0.667700	0.376100
C651	C65	0.409100	0.658300	0.318600
C661	C66	0.365200	0.700200	0.369000
H371	H37	0.333900	0.715200	0.381600
C671	C67	0.529900	0.767700	0.471640
C681	C68	0.605100	0.998400	0.841790
H381	H38	0.605000	0.831000	0.539100
H391	H39	0.551000	0.786000	0.451800
H401	H40	0.588300	0.950000	0.850200
H411	H41	0.410000	0.644000	0.286800
H421	H42	0.726000	0.085000	0.938000
Ni51	Ni5	0.254000	0.671600	0.255720
Ni61	Ni6	0.218980	0.494230	0.539410
O171	O17	0.173120	0.664990	0.334610
O181	O18	0.223080	0.582930	0.295610
O191	O19	0.213020	0.260380	0.284030
O201	O20	0.164290	0.175020	0.322820
O211	O21	0.783910	0.427820	0.348540
O221	O22	0.847220	0.488700	0.427890
O231	O23	0.135220	0.449620	0.472450
O241	O24	0.088120	0.588100	0.450100
N131	N13	0.279670	0.469100	0.502830
N141	N14	0.368210	0.468100	0.486470
N151	N15	0.157590	0.670600	0.192100
N161	N16	0.072800	0.699300	0.113840
N171	N17	0.932250	0.799000	0.898920
N181	N18	0.848910	0.824500	0.819440
C691	C69	0.156400	0.503200	0.326230
C701	C70	0.179400	0.420600	0.315790
H431	H43	0.213900	0.420500	0.305400
C711	C71	0.151200	0.337600	0.320760
C721	C72	0.098700	0.339100	0.335560
H441	H44	0.079200	0.284200	0.338500
C731	C73	0.075200	0.420700	0.345910
C741	C74	0.016000	0.424500	0.358710
C751	C75	0.953100	0.393600	0.320630
H451	H45	0.949500	0.366400	0.289500
C761	C76	0.896300	0.403300	0.329120
H461	H46	0.854500	0.383700	0.303400
C771	C77	0.901500	0.442300	0.375980
C781	C78	0.963800	0.472800	0.413780
H471	H47	0.967400	0.499500	0.445000
C791	C79	0.021400	0.463700	0.405230
C801	C80	0.186700	0.590400	0.318810
C811	C81	0.177800	0.250700	0.308320
C821	C82	0.840100	0.453600	0.385360
C831	C83	0.087000	0.503700	0.445810
C841	C84	0.315900	0.431000	0.443300
H481	H48	0.316800	0.408900	0.412600
C851	C85	0.262200	0.432800	0.454300
C861	C86	0.343400	0.490500	0.520800
H491	H49	0.368600	0.518000	0.553500
C871	C87	0.486200	0.500800	0.543160
H501	H50	0.476700	0.501500	0.572300
C881	C88	0.435300	0.483400	0.493410
C891	C89	0.448500	0.482500	0.449640
H511	H51	0.414100	0.470900	0.415900
C901	C90	0.045600	0.676100	0.147270
H521	H52	0.999900	0.673000	0.138800
C911	C91	0.097400	0.658600	0.194780
H531	H53	0.093300	0.641000	0.225000
C921	C92	0.140300	0.694800	0.142610
H541	H54	0.170900	0.707200	0.129100
C931	C93	0.036700	0.724400	0.058970
C941	C94	0.065300	0.707100	0.025070
C951	C95	0.967000	0.773600	0.953820
C961	C96	0.938700	0.787900	0.987920
H551	H55	0.896000	0.813900	0.975500
C971	C97	0.973800	0.763700	0.040750
H561	H56	0.955000	0.774000	0.064000
C981	C98	0.960700	0.826000	0.866650
H571	H57	0.006400	0.832300	0.876100
C991	C99	0.909100	0.841700	0.818600
C1001	C100	0.865200	0.799800	0.869000
H581	H58	0.833900	0.784800	0.881600
C1011	C101	0.029900	0.732300	0.971640
C1021	C102	0.105100	0.501600	0.341790
H591	H59	0.105000	0.669000	0.039100
H601	H60	0.051000	0.714000	0.951800
H611	H61	0.088300	0.550000	0.350200
H621	H62	0.910000	0.856000	0.786800
H631	H63	0.226000	0.415000	0.438000
Ni71	Ni7	0.246000	0.171600	0.244280
Ni81	Ni8	0.281020	0.994230	0.960590
O251	O25	0.326880	0.164990	0.165390
O261	O26	0.276920	0.082930	0.204390
O271	O27	0.286980	0.760380	0.215970
O281	O28	0.335710	0.675020	0.177180
O291	O29	0.716090	0.927820	0.151460
O301	O30	0.652780	0.988700	0.072110
O311	O31	0.364780	0.949620	0.027550
O321	O32	0.411880	0.088100	0.049900
N191	N19	0.220330	0.969100	0.997170
N201	N20	0.131790	0.968100	0.013530
N211	N21	0.342410	0.170600	0.307900
N221	N22	0.427200	0.199300	0.386160
N231	N23	0.567750	0.299000	0.601080
N241	N24	0.651090	0.324500	0.680560
C1031	C103	0.343600	0.003200	0.173770
C1041	C104	0.320600	0.920600	0.184210
H641	H64	0.286100	0.920500	0.194600
C1051	C105	0.348800	0.837600	0.179240
C1061	C106	0.401300	0.839100	0.164440
H651	H65	0.420800	0.784200	0.161500
C1071	C107	0.424800	0.920700	0.154090
C1081	C108	0.484000	0.924500	0.141290
C1091	C109	0.546900	0.893600	0.179370
H661	H66	0.550500	0.866400	0.210500
C1101	C110	0.603700	0.903300	0.170880
H671	H67	0.645500	0.883700	0.196600
C1111	C111	0.598500	0.942300	0.124020
C1121	C112	0.536200	0.972800	0.086220
H681	H68	0.532600	0.999500	0.055000
C1131	C113	0.478600	0.963700	0.094770
C1141	C114	0.313300	0.090400	0.181190
C1151	C115	0.322200	0.750700	0.191680
C1161	C116	0.659900	0.953600	0.114640
C1171	C117	0.413000	0.003700	0.054190
C1181	C118	0.184100	0.931000	0.056700
H691	H69	0.183200	0.908900	0.087400
C1191	C119	0.237800	0.932800	0.045700
C1201	C120	0.156600	0.990500	0.979200
H701	H70	0.131400	0.018000	0.946500
C1211	C121	0.013800	0.000800	0.956840
H711	H71	0.023300	0.001500	0.927700
C1221	C122	0.064700	0.983400	0.006590
C1231	C123	0.051500	0.982500	0.050360
H721	H72	0.085900	0.970900	0.084100
C1241	C124	0.454400	0.176100	0.352730
H731	H73	0.500100	0.173000	0.361200
C1251	C125	0.402600	0.158600	0.305220
H741	H74	0.406700	0.141000	0.275000
C1261	C126	0.359700	0.194800	0.357390
H751	H75	0.329100	0.207200	0.370900
C1271	C127	0.463300	0.224400	0.441030
C1281	C128	0.434700	0.207100	0.474930
C1291	C129	0.533000	0.273600	0.546180
C1301	C130	0.561300	0.287900	0.512080
H761	H76	0.604000	0.313900	0.524500
C1311	C131	0.526200	0.263700	0.459250
H771	H77	0.545000	0.274000	0.436000
C1321	C132	0.539300	0.326000	0.633350
H781	H78	0.493600	0.332300	0.623900
C1331	C133	0.590900	0.341700	0.681400
C1341	C134	0.634800	0.299800	0.631000
H791	H79	0.666100	0.284800	0.618400
C1351	C135	0.470100	0.232300	0.528360
C1361	C136	0.394900	0.001600	0.158210
H801	H80	0.395000	0.169000	0.460900
H811	H81	0.449000	0.214000	0.548200
H821	H82	0.411700	0.050000	0.149800
H831	H83	0.590000	0.356000	0.713200
H841	H84	0.274000	0.915000	0.062000
Ni91	Ni9	0.246000	0.828400	0.744280
Ni101	Ni10	0.281020	0.005770	0.460590
O331	O33	0.326880	0.835010	0.665390
O341	O34	0.276920	0.917070	0.704390
O351	O35	0.286980	0.239620	0.715970
O361	O36	0.335710	0.324980	0.677180
O371	O37	0.716090	0.072180	0.651460
O381	O38	0.652780	0.011300	0.572110
O391	O39	0.364780	0.050380	0.527550
O401	O40	0.411880	0.911900	0.549900
N251	N25	0.220330	0.030900	0.497170
N261	N26	0.131790	0.031900	0.513530
N271	N27	0.342410	0.829400	0.807900
N281	N28	0.427200	0.800700	0.886160
N291	N29	0.567750	0.701000	0.101080
N301	N30	0.651090	0.675500	0.180560
C1371	C137	0.343600	0.996800	0.673770
C1381	C138	0.320600	0.079400	0.684210
H851	H85	0.286100	0.079500	0.694600
C1391	C139	0.348800	0.162400	0.679240
C1401	C140	0.401300	0.160900	0.664440
H861	H86	0.420800	0.215800	0.661500
C1411	C141	0.424800	0.079300	0.654090
C1421	C142	0.484000	0.075500	0.641290
C1431	C143	0.546900	0.106400	0.679370
H871	H87	0.550500	0.133600	0.710500
C1441	C144	0.603700	0.096700	0.670880
H881	H88	0.645500	0.116300	0.696600
C1451	C145	0.598500	0.057700	0.624020
C1461	C146	0.536200	0.027200	0.586220
H891	H89	0.532600	0.000500	0.555000
C1471	C147	0.478600	0.036300	0.594770
C1481	C148	0.313300	0.909600	0.681190
C1491	C149	0.322200	0.249300	0.691680
C1501	C150	0.659900	0.046400	0.614640
C1511	C151	0.413000	0.996300	0.554190
C1521	C152	0.184100	0.069000	0.556700
H901	H90	0.183200	0.091100	0.587400
C1531	C153	0.237800	0.067200	0.545700
C1541	C154	0.156600	0.009500	0.479200
H911	H91	0.131400	0.982000	0.446500
C1551	C155	0.013800	0.999200	0.456840
H921	H92	0.023300	0.998500	0.427700
C1561	C156	0.064700	0.016600	0.506590
C1571	C157	0.051500	0.017500	0.550360
H931	H93	0.085900	0.029100	0.584100
C1581	C158	0.454400	0.823900	0.852730
H941	H94	0.500100	0.827000	0.861200
C1591	C159	0.402600	0.841400	0.805220
H951	H95	0.406700	0.859000	0.775000
C1601	C160	0.359700	0.805200	0.857390
H961	H96	0.329100	0.792800	0.870900
C1611	C161	0.463300	0.775600	0.941030
C1621	C162	0.434700	0.792900	0.974930
C1631	C163	0.533000	0.726400	0.046180
C1641	C164	0.561300	0.712100	0.012080
H971	H97	0.604000	0.686100	0.024500
C1651	C165	0.526200	0.736300	0.959250
H981	H98	0.545000	0.726000	0.936000
C1661	C166	0.539300	0.674000	0.133350
H991	H99	0.493600	0.667700	0.123900
C1671	C167	0.590900	0.658300	0.181400
C1681	C168	0.634800	0.700200	0.131000
H1001	H100	0.666100	0.715200	0.118400
C1691	C169	0.470100	0.767700	0.028360
C1701	C170	0.394900	0.998400	0.658210
H1011	H101	0.395000	0.831000	0.960900
H1021	H102	0.449000	0.786000	0.048200
H1031	H103	0.411700	0.950000	0.649800
H1041	H104	0.590000	0.644000	0.213200
H1051	H105	0.274000	0.085000	0.562000
Ni111	Ni11	0.254000	0.328400	0.755720
Ni121	Ni12	0.218980	0.505770	0.039410
O411	O41	0.173120	0.335010	0.834610
O421	O42	0.223080	0.417070	0.795610
O431	O43	0.213020	0.739620	0.784030
O441	O44	0.164290	0.824980	0.822820
O451	O45	0.783910	0.572180	0.848540
O461	O46	0.847220	0.511300	0.927890
O471	O47	0.135220	0.550380	0.972450
O481	O48	0.088120	0.411900	0.950100
N311	N31	0.279670	0.530900	0.002830
N321	N32	0.368210	0.531900	0.986470
N331	N33	0.157590	0.329400	0.692100
N341	N34	0.072800	0.300700	0.613840
N351	N35	0.932250	0.201000	0.398920
N361	N36	0.848910	0.175500	0.319440
C1711	C171	0.156400	0.496800	0.826230
C1721	C172	0.179400	0.579400	0.815790
H1061	H106	0.213900	0.579500	0.805400
C1731	C173	0.151200	0.662400	0.820760
C1741	C174	0.098700	0.660900	0.835560
H1071	H107	0.079200	0.715800	0.838500
C1751	C175	0.075200	0.579300	0.845910
C1761	C176	0.016000	0.575500	0.858710
C1771	C177	0.953100	0.606400	0.820630
H1081	H108	0.949500	0.633600	0.789500
C1781	C178	0.896300	0.596700	0.829120
H1091	H109	0.854500	0.616300	0.803400
C1791	C179	0.901500	0.557700	0.875980
C1801	C180	0.963800	0.527200	0.913780
H1101	H110	0.967400	0.500500	0.945000
C1811	C181	0.021400	0.536300	0.905230
C1821	C182	0.186700	0.409600	0.818810
C1831	C183	0.177800	0.749300	0.808320
C1841	C184	0.840100	0.546400	0.885360
C1851	C185	0.087000	0.496300	0.945810
C1861	C186	0.315900	0.569000	0.943300
H1111	H111	0.316800	0.591100	0.912600
C1871	C187	0.262200	0.567200	0.954300
C1881	C188	0.343400	0.509500	0.020800
H1121	H112	0.368600	0.482000	0.053500
C1891	C189	0.486200	0.499200	0.043160
H1131	H113	0.476700	0.498500	0.072300
C1901	C190	0.435300	0.516600	0.993410
C1911	C191	0.448500	0.517500	0.949640
H1141	H114	0.414100	0.529100	0.915900
C1921	C192	0.045600	0.323900	0.647270
H1151	H115	0.999900	0.327000	0.638800
C1931	C193	0.097400	0.341400	0.694780
H1161	H116	0.093300	0.359000	0.725000
C1941	C194	0.140300	0.305200	0.642610
H1171	H117	0.170900	0.292800	0.629100
C1951	C195	0.036700	0.275600	0.558970
C1961	C196	0.065300	0.292900	0.525070
C1971	C197	0.967000	0.226400	0.453820
C1981	C198	0.938700	0.212100	0.487920
H1181	H118	0.896000	0.186100	0.475500
C1991	C199	0.973800	0.236300	0.540750
H1191	H119	0.955000	0.226000	0.564000
C2001	C200	0.960700	0.174000	0.366650
H1201	H120	0.006400	0.167700	0.376100
C2011	C201	0.909100	0.158300	0.318600
C2021	C202	0.865200	0.200200	0.369000
H1211	H121	0.833900	0.215200	0.381600
C2031	C203	0.029900	0.267700	0.471640
C2041	C204	0.105100	0.498400	0.841790
H1221	H122	0.105000	0.331000	0.539100
H1231	H123	0.051000	0.286000	0.451800
H1241	H124	0.088300	0.450000	0.850200
H1251	H125	0.910000	0.144000	0.286800
H1261	H126	0.226000	0.585000	0.938000
Ni131	Ni13	0.754000	0.171600	0.255720
Ni141	Ni14	0.718980	0.994230	0.539410
O491	O49	0.673120	0.164990	0.334610
O501	O50	0.723080	0.082930	0.295610
O511	O51	0.713020	0.760380	0.284030
O521	O52	0.664290	0.675020	0.322820
O531	O53	0.283910	0.927820	0.348540
O541	O54	0.347220	0.988700	0.427890
O551	O55	0.635220	0.949620	0.472450
O561	O56	0.588120	0.088100	0.450100
N371	N37	0.779670	0.969100	0.502830
N381	N38	0.868210	0.968100	0.486470
N391	N39	0.657590	0.170600	0.192100
N401	N40	0.572800	0.199300	0.113840
N411	N41	0.432250	0.299000	0.898920
N421	N42	0.348910	0.324500	0.819440
C2051	C205	0.656400	0.003200	0.326230
C2061	C206	0.679400	0.920600	0.315790
H1271	H127	0.713900	0.920500	0.305400
C2071	C207	0.651200	0.837600	0.320760
C2081	C208	0.598700	0.839100	0.335560
H1281	H128	0.579200	0.784200	0.338500
C2091	C209	0.575200	0.920700	0.345910
C2101	C210	0.516000	0.924500	0.358710
C2111	C211	0.453100	0.893600	0.320630
H1291	H129	0.449500	0.866400	0.289500
C2121	C212	0.396300	0.903300	0.329120
H1301	H130	0.354500	0.883700	0.303400
C2131	C213	0.401500	0.942300	0.375980
C2141	C214	0.463800	0.972800	0.413780
H1311	H131	0.467400	0.999500	0.445000
C2151	C215	0.521400	0.963700	0.405230
C2161	C216	0.686700	0.090400	0.318810
C2171	C217	0.677800	0.750700	0.308320
C2181	C218	0.340100	0.953600	0.385360
C2191	C219	0.587000	0.003700	0.445810
C2201	C220	0.815900	0.931000	0.443300
H1321	H132	0.816800	0.908900	0.412600
C2211	C221	0.762200	0.932800	0.454300
C2221	C222	0.843400	0.990500	0.520800
H1331	H133	0.868600	0.018000	0.553500
C2231	C223	0.986200	0.000800	0.543160
H1341	H134	0.976700	0.001500	0.572300
C2241	C224	0.935300	0.983400	0.493410
C2251	C225	0.948500	0.982500	0.449640
H1351	H135	0.914100	0.970900	0.415900
C2261	C226	0.545600	0.176100	0.147270
H1361	H136	0.499900	0.173000	0.138800
C2271	C227	0.597400	0.158600	0.194780
H1371	H137	0.593300	0.141000	0.225000
C2281	C228	0.640300	0.194800	0.142610
H1381	H138	0.670900	0.207200	0.129100
C2291	C229	0.536700	0.224400	0.058970
C2301	C230	0.565300	0.207100	0.025070
C2311	C231	0.467000	0.273600	0.953820
C2321	C232	0.438700	0.287900	0.987920
H1391	H139	0.396000	0.313900	0.975500
C2331	C233	0.473800	0.263700	0.040750
H1401	H140	0.455000	0.274000	0.064000
C2341	C234	0.460700	0.326000	0.866650
H1411	H141	0.506400	0.332300	0.876100
C2351	C235	0.409100	0.341700	0.818600
C2361	C236	0.365200	0.299800	0.869000
H1421	H142	0.333900	0.284800	0.881600
C2371	C237	0.529900	0.232300	0.971640
C2381	C238	0.605100	0.001600	0.341790
H1431	H143	0.605000	0.169000	0.039100
H1441	H144	0.551000	0.214000	0.951800
H1451	H145	0.588300	0.050000	0.350200
H1461	H146	0.410000	0.356000	0.786800
H1471	H147	0.726000	0.915000	0.438000
Ni151	Ni15	0.746000	0.671600	0.244280
Ni161	Ni16	0.781020	0.494230	0.960590
O571	O57	0.826880	0.664990	0.165390
O581	O58	0.776920	0.582930	0.204390
O591	O59	0.786980	0.260380	0.215970
O601	O60	0.835710	0.175020	0.177180
O611	O61	0.216090	0.427820	0.151460
O621	O62	0.152780	0.488700	0.072110
O631	O63	0.864780	0.449620	0.027550
O641	O64	0.911880	0.588100	0.049900
N431	N43	0.720330	0.469100	0.997170
N441	N44	0.631790	0.468100	0.013530
N451	N45	0.842410	0.670600	0.307900
N461	N46	0.927200	0.699300	0.386160
N471	N47	0.067750	0.799000	0.601080
N481	N48	0.151090	0.824500	0.680560
C2391	C239	0.843600	0.503200	0.173770
C2401	C240	0.820600	0.420600	0.184210
H1481	H148	0.786100	0.420500	0.194600
C2411	C241	0.848800	0.337600	0.179240
C2421	C242	0.901300	0.339100	0.164440
H1491	H149	0.920800	0.284200	0.161500
C2431	C243	0.924800	0.420700	0.154090
C2441	C244	0.984000	0.424500	0.141290
C2451	C245	0.046900	0.393600	0.179370
H1501	H150	0.050500	0.366400	0.210500
C2461	C246	0.103700	0.403300	0.170880
H1511	H151	0.145500	0.383700	0.196600
C2471	C247	0.098500	0.442300	0.124020
C2481	C248	0.036200	0.472800	0.086220
H1521	H152	0.032600	0.499500	0.055000
C2491	C249	0.978600	0.463700	0.094770
C2501	C250	0.813300	0.590400	0.181190
C2511	C251	0.822200	0.250700	0.191680
C2521	C252	0.159900	0.453600	0.114640
C2531	C253	0.913000	0.503700	0.054190
C2541	C254	0.684100	0.431000	0.056700
H1531	H153	0.683200	0.408900	0.087400
C2551	C255	0.737800	0.432800	0.045700
C2561	C256	0.656600	0.490500	0.979200
H1541	H154	0.631400	0.518000	0.946500
C2571	C257	0.513800	0.500800	0.956840
H1551	H155	0.523300	0.501500	0.927700
C2581	C258	0.564700	0.483400	0.006590
C2591	C259	0.551500	0.482500	0.050360
H1561	H156	0.585900	0.470900	0.084100
C2601	C260	0.954400	0.676100	0.352730
H1571	H157	0.000100	0.673000	0.361200
C2611	C261	0.902600	0.658600	0.305220
H1581	H158	0.906700	0.641000	0.275000
C2621	C262	0.859700	0.694800	0.357390
H1591	H159	0.829100	0.707200	0.370900
C2631	C263	0.963300	0.724400	0.441030
C2641	C264	0.934700	0.707100	0.474930
C2651	C265	0.033000	0.773600	0.546180
C2661	C266	0.061300	0.787900	0.512080
H1601	H160	0.104000	0.813900	0.524500
C2671	C267	0.026200	0.763700	0.459250
H1611	H161	0.045000	0.774000	0.436000
C2681	C268	0.039300	0.826000	0.633350
H1621	H162	0.993600	0.832300	0.623900
C2691	C269	0.090900	0.841700	0.681400
C2701	C270	0.134800	0.799800	0.631000
H1631	H163	0.166100	0.784800	0.618400
C2711	C271	0.970100	0.732300	0.528360
C2721	C272	0.894900	0.501600	0.158210
H1641	H164	0.895000	0.669000	0.460900
H1651	H165	0.949000	0.714000	0.548200
H1661	H166	0.911700	0.550000	0.149800
H1671	H167	0.090000	0.856000	0.713200
H1681	H168	0.774000	0.415000	0.062000
