data_ZOXGOK_clean_PM
_symmetry_space_group_name_H-M	'P1'
_cell_length_a	13.757000
_cell_length_b	20.753000
_cell_length_c	7.860000
_cell_angle_alpha	90.000000
_cell_angle_beta	91.660000
_cell_angle_gamma	90.000000
_symmetry_Int_Tables_number 1

loop_
_symmetry_equiv_pos_as_xyz
'x,y,z'

loop_
_atom_site_label
_atom_site_type_symbol
_atom_site_fract_x
_atom_site_fract_y
_atom_site_fract_z
Cu11	Cu1	0.084050	0.510810	0.077070
Cu21	Cu2	0.503020	0.664550	0.534060
O11	O1	0.365760	0.660040	0.505600
O21	O2	0.322340	0.755720	0.394400
O31	O3	0.643390	0.827010	0.076300
O41	O4	0.607600	0.723830	0.031000
O51	O5	0.862470	0.565710	0.033400
O61	O6	0.120310	0.559950	0.875400
O71	O7	0.008710	0.585250	0.152400
O81	O8	0.973600	0.545080	0.751800
C11	C1	0.303700	0.702340	0.455100
C21	C2	0.199400	0.681660	0.477000
C31	C3	0.125200	0.706450	0.371100
H11	H1	0.145000	0.740000	0.285000
C41	C4	0.011700	0.635230	0.503200
H21	H2	0.955000	0.618100	0.507000
C51	C5	0.030400	0.682200	0.383400
C61	C6	0.945600	0.706020	0.277700
C71	C7	0.917500	0.769740	0.289800
H31	H3	0.950000	0.797400	0.348000
C81	C8	0.829100	0.791500	0.219300
H41	H4	0.812000	0.831600	0.230000
C91	C9	0.765700	0.748360	0.140800
C101	C10	0.795500	0.685400	0.120200
H51	H5	0.754000	0.656500	0.064300
C111	C11	0.886100	0.663860	0.180800
C121	C12	0.921400	0.599410	0.121500
C131	C13	0.057800	0.568630	0.757700
C141	C14	0.083900	0.613470	0.617100
C151	C15	0.178500	0.635830	0.599200
H61	H6	0.227000	0.624700	0.662000
C161	C16	0.666200	0.767200	0.075600
Cu31	Cu3	0.915950	0.010810	0.422930
Cu41	Cu4	0.496980	0.164550	0.965940
O91	O9	0.634240	0.160040	0.994400
O101	O10	0.677660	0.255720	0.105600
O111	O11	0.356610	0.327010	0.423700
O121	O12	0.392400	0.223830	0.469000
O131	O13	0.137530	0.065710	0.466600
O141	O14	0.879690	0.059950	0.624600
O151	O15	0.991290	0.085250	0.347600
O161	O16	0.026400	0.045080	0.748200
C171	C17	0.696300	0.202340	0.044900
C181	C18	0.800600	0.181660	0.023000
C191	C19	0.874800	0.206450	0.128900
H71	H7	0.855000	0.240000	0.215000
C201	C20	0.988300	0.135230	0.996800
H81	H8	0.045000	0.118100	0.993000
C211	C21	0.969600	0.182200	0.116600
C221	C22	0.054400	0.206020	0.222300
C231	C23	0.082500	0.269740	0.210200
H91	H9	0.050000	0.297400	0.152000
C241	C24	0.170900	0.291500	0.280700
H101	H10	0.188000	0.331600	0.270000
C251	C25	0.234300	0.248360	0.359200
C261	C26	0.204500	0.185400	0.379800
H111	H11	0.246000	0.156500	0.435700
C271	C27	0.113900	0.163860	0.319200
C281	C28	0.078600	0.099410	0.378500
C291	C29	0.942200	0.068630	0.742300
C301	C30	0.916100	0.113470	0.882900
C311	C31	0.821500	0.135830	0.900800
H121	H12	0.773000	0.124700	0.838000
C321	C32	0.333800	0.267200	0.424400
Cu51	Cu5	0.915950	0.489190	0.922930
Cu61	Cu6	0.496980	0.335450	0.465940
O171	O17	0.634240	0.339960	0.494400
O181	O18	0.677660	0.244280	0.605600
O191	O19	0.356610	0.172990	0.923700
O201	O20	0.392400	0.276170	0.969000
O211	O21	0.137530	0.434290	0.966600
O221	O22	0.879690	0.440050	0.124600
O231	O23	0.991290	0.414750	0.847600
O241	O24	0.026400	0.454920	0.248200
C331	C33	0.696300	0.297660	0.544900
C341	C34	0.800600	0.318340	0.523000
C351	C35	0.874800	0.293550	0.628900
H131	H13	0.855000	0.260000	0.715000
C361	C36	0.988300	0.364770	0.496800
H141	H14	0.045000	0.381900	0.493000
C371	C37	0.969600	0.317800	0.616600
C381	C38	0.054400	0.293980	0.722300
C391	C39	0.082500	0.230260	0.710200
H151	H15	0.050000	0.202600	0.652000
C401	C40	0.170900	0.208500	0.780700
H161	H16	0.188000	0.168400	0.770000
C411	C41	0.234300	0.251640	0.859200
C421	C42	0.204500	0.314600	0.879800
H171	H17	0.246000	0.343500	0.935700
C431	C43	0.113900	0.336140	0.819200
C441	C44	0.078600	0.400590	0.878500
C451	C45	0.942200	0.431370	0.242300
C461	C46	0.916100	0.386530	0.382900
C471	C47	0.821500	0.364170	0.400800
H181	H18	0.773000	0.375300	0.338000
C481	C48	0.333800	0.232800	0.924400
Cu71	Cu7	0.084050	0.989190	0.577070
Cu81	Cu8	0.503020	0.835450	0.034060
O251	O25	0.365760	0.839960	0.005600
O261	O26	0.322340	0.744280	0.894400
O271	O27	0.643390	0.672990	0.576300
O281	O28	0.607600	0.776170	0.531000
O291	O29	0.862470	0.934290	0.533400
O301	O30	0.120310	0.940050	0.375400
O311	O31	0.008710	0.914750	0.652400
O321	O32	0.973600	0.954920	0.251800
C491	C49	0.303700	0.797660	0.955100
C501	C50	0.199400	0.818340	0.977000
C511	C51	0.125200	0.793550	0.871100
H191	H19	0.145000	0.760000	0.785000
C521	C52	0.011700	0.864770	0.003200
H201	H20	0.955000	0.881900	0.007000
C531	C53	0.030400	0.817800	0.883400
C541	C54	0.945600	0.793980	0.777700
C551	C55	0.917500	0.730260	0.789800
H211	H21	0.950000	0.702600	0.848000
C561	C56	0.829100	0.708500	0.719300
H221	H22	0.812000	0.668400	0.730000
C571	C57	0.765700	0.751640	0.640800
C581	C58	0.795500	0.814600	0.620200
H231	H23	0.754000	0.843500	0.564300
C591	C59	0.886100	0.836140	0.680800
C601	C60	0.921400	0.900590	0.621500
C611	C61	0.057800	0.931370	0.257700
C621	C62	0.083900	0.886530	0.117100
C631	C63	0.178500	0.864170	0.099200
H241	H24	0.227000	0.875300	0.162000
C641	C64	0.666200	0.732800	0.575600
