data_ZOXNEH_clean_PM
_symmetry_space_group_name_H-M	'P1'
_cell_length_a	6.943700
_cell_length_b	13.322600
_cell_length_c	16.384800
_cell_angle_alpha	90.000000
_cell_angle_beta	90.000000
_cell_angle_gamma	90.000000
_symmetry_Int_Tables_number 1

loop_
_symmetry_equiv_pos_as_xyz
'x,y,z'

loop_
_atom_site_label
_atom_site_type_symbol
_atom_site_fract_x
_atom_site_fract_y
_atom_site_fract_z
Cd11	Cd1	0.500000	0.223640	0.340590
Cd21	Cd2	0.000000	0.276360	0.840590
Cd31	Cd3	0.000000	0.723640	0.159410
Cd41	Cd4	0.500000	0.776360	0.659410
H11	H1	0.000000	0.015200	0.338400
H21	H2	0.000000	0.984800	0.661600
H31	H3	0.000000	0.748400	0.452300
H41	H4	0.500000	0.751600	0.952300
H51	H5	0.500000	0.515200	0.161600
H61	H6	0.500000	0.484800	0.838400
H71	H7	0.500000	0.248400	0.047700
H81	H8	0.000000	0.251600	0.547700
C11	C1	0.500000	0.318100	0.044500
C21	C2	0.000000	0.123400	0.617200
C31	C3	0.000000	0.876600	0.382800
C41	C4	0.000000	0.818100	0.455500
C51	C5	0.500000	0.478200	0.113500
C61	C6	0.500000	0.677100	0.801400
C71	C7	0.500000	0.364000	0.970000
C81	C8	0.500000	0.322900	0.198600
C91	C9	0.000000	0.864000	0.530000
C101	C10	0.500000	0.376600	0.117200
C111	C11	0.000000	0.021800	0.613500
C121	C12	0.000000	0.181900	0.544500
C131	C13	0.000000	0.822900	0.301400
C141	C14	0.500000	0.636000	0.030000
C151	C15	0.000000	0.136000	0.470000
C161	C16	0.000000	0.978200	0.386500
C171	C17	0.500000	0.529600	0.036600
C181	C18	0.500000	0.470400	0.963400
C191	C19	0.000000	0.177100	0.698600
C201	C20	0.500000	0.681900	0.955500
C211	C21	0.000000	0.970400	0.536600
C221	C22	0.500000	0.521800	0.886500
C231	C23	0.000000	0.029600	0.463400
C241	C24	0.500000	0.623400	0.882800
S11	S1	0.500000	0.715730	0.118200
S21	S2	0.500000	0.284270	0.881800
S31	S3	0.000000	0.215730	0.381800
S41	S4	0.000000	0.784270	0.618200
O11	O1	0.328700	0.690500	0.165500
O21	O2	0.328700	0.309500	0.834500
O31	O3	0.000000	0.872900	0.236700
O41	O4	0.000000	0.683300	0.587300
O51	O5	0.000000	0.316700	0.412700
O61	O6	0.828700	0.809500	0.665500
O71	O7	0.828700	0.190500	0.334500
O81	O8	0.500000	0.372900	0.263300
O91	O9	0.171300	0.809500	0.665500
O101	O10	0.500000	0.816700	0.087300
O111	O11	0.000000	0.271000	0.698700
O121	O12	0.500000	0.183300	0.912700
O131	O13	0.000000	0.729000	0.301300
O141	O14	0.500000	0.627100	0.736700
O151	O15	0.500000	0.229000	0.198700
O161	O16	0.000000	0.127100	0.763300
O171	O17	0.171300	0.190500	0.334500
O181	O18	0.671300	0.309500	0.834500
O191	O19	0.671300	0.690500	0.165500
O201	O20	0.500000	0.771000	0.801300
