data_ZOXTOX_clean_PM
_symmetry_space_group_name_H-M	'P1'
_cell_length_a	9.178900
_cell_length_b	12.929200
_cell_length_c	18.445300
_cell_angle_alpha	71.998300
_cell_angle_beta	75.592700
_cell_angle_gamma	69.208500
_symmetry_Int_Tables_number 1

loop_
_symmetry_equiv_pos_as_xyz
'x,y,z'

loop_
_atom_site_label
_atom_site_type_symbol
_atom_site_fract_x
_atom_site_fract_y
_atom_site_fract_z
Yb11	Yb1	0.849030	0.911630	0.004130
Yb21	Yb2	0.150970	0.088370	0.995870
Yb31	Yb3	0.764790	0.588370	0.495870
Yb41	Yb4	0.235210	0.411630	0.504130
Zn11	Zn1	0.778730	0.588430	0.836750
Zn21	Zn2	0.796090	0.088430	0.336750
Zn31	Zn3	0.203910	0.911570	0.663250
Zn41	Zn4	0.221270	0.411570	0.163250
H11	H1	0.262800	0.013800	0.435200
H21	H2	0.501800	0.177800	0.139400
H31	H3	0.889000	0.892300	0.593100
H41	H4	0.403300	0.927600	0.803200
H51	H5	0.269200	0.805500	0.462500
H61	H6	0.675000	0.166100	0.144700
H71	H7	0.730800	0.194500	0.537500
H81	H8	0.242100	0.045800	0.348400
H91	H9	0.865900	0.427600	0.303200
H101	H10	0.737200	0.986200	0.564800
H111	H11	0.537200	0.694500	0.037500
H121	H12	0.363700	0.545800	0.848400
H131	H13	0.014200	0.666100	0.644700
H141	H14	0.498200	0.822200	0.860600
H151	H15	0.462800	0.305500	0.962500
H161	H16	0.819000	0.322200	0.360600
H171	H17	0.596700	0.072400	0.196800
H181	H18	0.757900	0.954200	0.651600
H191	H19	0.636300	0.454200	0.151600
H201	H20	0.288200	0.513800	0.935200
H211	H21	0.111000	0.107700	0.406900
H221	H22	0.325000	0.833900	0.855300
H231	H23	0.711800	0.486200	0.064800
H241	H24	0.181000	0.677800	0.639400
H251	H25	0.985800	0.333900	0.355300
H261	H26	0.625600	0.392300	0.093100
H271	H27	0.134100	0.572400	0.696800
H281	H28	0.374400	0.607700	0.906900
C11	C1	0.624670	0.657760	0.700900
C21	C2	0.811900	0.963200	0.599400
C31	C3	0.305030	0.721740	0.042200
C41	C4	0.228200	0.639600	0.069600
C51	C5	0.446840	0.736220	0.591300
C61	C6	0.780010	0.858580	0.424000
C71	C7	0.749580	0.152540	0.979300
C81	C8	0.625500	0.463200	0.099400
C91	C9	0.062600	0.139600	0.569600
C101	C10	0.937400	0.860400	0.430400
C111	C11	0.062590	0.641420	0.076000
C121	C12	0.774360	0.763780	0.908700
C131	C13	0.108100	0.947900	0.418300
C141	C14	0.375330	0.342240	0.299100
C151	C15	0.578100	0.152500	0.173500
C161	C16	0.996560	0.057480	0.186600
C171	C17	0.118580	0.652540	0.479300
C181	C18	0.250420	0.847460	0.020700
C191	C19	0.891900	0.052100	0.581700
C201	C20	0.240640	0.442520	0.313400
C211	C21	0.881420	0.347460	0.520700
C221	C22	0.517370	0.216460	0.234600
C231	C23	0.003440	0.942520	0.813400
C241	C24	0.968430	0.283540	0.265400
C251	C25	0.188100	0.036800	0.400600
C261	C26	0.904100	0.347500	0.326500
C271	C27	0.095900	0.652500	0.673500
C281	C28	0.482630	0.783540	0.765400
C291	C29	0.759360	0.557480	0.686600
C301	C30	0.225640	0.236220	0.091300
C311	C31	0.895470	0.767960	0.838700
C321	C32	0.983330	0.842240	0.799100
C331	C33	0.497870	0.267960	0.338700
C341	C34	0.031570	0.716460	0.734600
C351	C35	0.937410	0.358580	0.924000
C361	C36	0.771800	0.360400	0.930400
C371	C37	0.525700	0.447900	0.918300
C381	C38	0.104530	0.232040	0.161300
C391	C39	0.502130	0.732040	0.661300
C401	C40	0.694970	0.278260	0.957800
C411	C41	0.553160	0.263780	0.408700
C421	C42	0.374500	0.536800	0.900600
C431	C43	0.068970	0.778260	0.457800
C441	C44	0.421900	0.847500	0.826500
C451	C45	0.016670	0.157760	0.200900
C461	C46	0.931030	0.221740	0.542200
C471	C47	0.474300	0.552100	0.081700
C481	C48	0.219990	0.141420	0.576000
N11	N1	0.926960	0.689230	0.796650
N21	N2	0.073040	0.310770	0.203350
N31	N3	0.174140	0.836220	0.449500
N41	N4	0.825860	0.163780	0.550500
N51	N5	0.334770	0.534900	0.094760
N61	N6	0.665230	0.465100	0.905240
N71	N7	0.066840	0.809260	0.733460
N81	N8	0.459860	0.663780	0.050500
N91	N9	0.933160	0.190740	0.266540
N101	N10	0.609560	0.690740	0.766540
N111	N11	0.390440	0.309260	0.233460
N121	N12	0.540140	0.336220	0.949500
N131	N13	0.964430	0.965100	0.405240
N141	N14	0.412840	0.810770	0.703350
N151	N15	0.587160	0.189230	0.296650
N161	N16	0.035570	0.034900	0.594760
O11	O1	0.052600	0.032010	0.121390
O21	O2	0.947400	0.967990	0.878610
O31	O3	0.020250	0.597350	0.496150
O41	O4	0.736570	0.401060	0.519400
O51	O5	0.970670	0.446400	0.884260
O61	O6	0.713840	0.684400	0.927120
O71	O7	0.268540	0.158860	0.055260
O81	O8	0.698670	0.946400	0.384260
O91	O9	0.838210	0.501630	0.739750
O101	O10	0.113750	0.902650	0.003850
O111	O11	0.029330	0.553600	0.115740
O121	O12	0.886250	0.097350	0.996150
O131	O13	0.325360	0.815600	0.572880
O141	O14	0.265390	0.228020	0.540400
O151	O15	0.966190	0.728020	0.040400
O161	O16	0.342970	0.901060	0.019400
O171	O17	0.301330	0.053600	0.615740
O181	O18	0.033810	0.271980	0.959600
O191	O19	0.482660	0.341140	0.444740
O201	O20	0.657030	0.098940	0.980600
O211	O21	0.731460	0.841140	0.944740
O221	O22	0.286160	0.315600	0.072880
O231	O23	0.206000	0.467990	0.378610
O241	O24	0.979750	0.402650	0.503850
O251	O25	0.794000	0.532010	0.621390
O261	O26	0.263430	0.598940	0.480600
O271	O27	0.920410	0.001630	0.239750
O281	O28	0.734610	0.771980	0.459600
O291	O29	0.079590	0.998370	0.760250
O301	O30	0.161790	0.498370	0.260250
O311	O31	0.674640	0.184400	0.427120
O321	O32	0.517340	0.658860	0.555260
