data_ZOXTIR_clean_PM
_symmetry_space_group_name_H-M	'P1'
_cell_length_a	9.173500
_cell_length_b	12.956400
_cell_length_c	18.507900
_cell_angle_alpha	72.201600
_cell_angle_beta	75.651000
_cell_angle_gamma	69.266900
_symmetry_Int_Tables_number 1

loop_
_symmetry_equiv_pos_as_xyz
'x,y,z'

loop_
_atom_site_label
_atom_site_type_symbol
_atom_site_fract_x
_atom_site_fract_y
_atom_site_fract_z
Er11	Er1	0.236090	0.411220	0.505080
Er21	Er2	0.152390	0.088790	0.994910
Er31	Er3	0.763910	0.588790	0.494910
Er41	Er4	0.847610	0.911220	0.005080
Zn11	Zn1	0.201400	0.911560	0.664040
Zn21	Zn2	0.798600	0.088440	0.335960
Zn31	Zn3	0.777000	0.588440	0.835960
Zn41	Zn4	0.223000	0.411560	0.164040
H11	H1	0.268300	0.805500	0.463900
H21	H2	0.371300	0.606500	0.908300
H31	H3	0.886100	0.893500	0.591700
H41	H4	0.511900	0.187000	0.134800
H51	H5	0.414700	0.923700	0.805300
H61	H6	0.286500	0.512000	0.936600
H71	H7	0.731700	0.194500	0.536100
H81	H8	0.245200	0.044600	0.350000
H91	H9	0.113900	0.106500	0.408300
H101	H10	0.856300	0.423700	0.305300
H111	H11	0.684900	0.158900	0.148900
H121	H12	0.639800	0.455400	0.150000
H131	H13	0.585300	0.076300	0.194700
H141	H14	0.713500	0.488000	0.063400
H151	H15	0.143700	0.576300	0.694700
H161	H16	0.537700	0.694500	0.036100
H171	H17	0.462300	0.305500	0.963900
H181	H18	0.315100	0.841100	0.851100
H191	H19	0.360200	0.544600	0.850000
H201	H20	0.754800	0.955400	0.650000
H211	H21	0.166300	0.687000	0.634800
H221	H22	0.992700	0.341100	0.351100
H231	H23	0.488100	0.813000	0.865200
H241	H24	0.833700	0.313000	0.365200
H251	H25	0.735100	0.988000	0.563400
H261	H26	0.628700	0.393500	0.091700
H271	H27	0.007300	0.658900	0.648900
H281	H28	0.264900	0.012000	0.436600
C11	C1	0.980200	0.842500	0.799300
C21	C2	0.226900	0.237600	0.091400
C31	C3	0.809500	0.964500	0.598100
C41	C4	0.931300	0.221200	0.542400
C51	C5	0.372100	0.535500	0.901900
C61	C6	0.908000	0.345700	0.327300
C71	C7	0.500700	0.267800	0.338400
C81	C8	0.756860	0.557980	0.686300
C91	C9	0.937000	0.359500	0.921700
C101	C10	0.063000	0.640500	0.078300
C111	C11	0.475800	0.552200	0.081600
C121	C12	0.972250	0.282000	0.266100
C131	C13	0.499300	0.732200	0.661600
C141	C14	0.581000	0.154300	0.172700
C151	C15	0.190500	0.035500	0.401900
C161	C16	0.419000	0.845700	0.827300
C171	C17	0.771710	0.360780	0.929400
C181	C18	0.555900	0.262400	0.408600
C191	C19	0.243140	0.442020	0.313700
C201	C20	0.881500	0.347100	0.520500
C211	C21	0.773100	0.762400	0.908600
C221	C22	0.998860	0.057980	0.186300
C231	C23	0.061890	0.139220	0.570600
C241	C24	0.444100	0.737600	0.591400
C251	C25	0.106900	0.232200	0.161600
C261	C26	0.218200	0.140500	0.578300
C271	C27	0.109600	0.947800	0.418400
C281	C28	0.627900	0.464500	0.098100
C291	C29	0.228290	0.639220	0.070600
C301	C30	0.479650	0.782000	0.766100
C311	C31	0.250900	0.847100	0.020500
C321	C32	0.068700	0.778800	0.457600
C331	C33	0.749100	0.152900	0.979500
C341	C34	0.524200	0.447800	0.918400
C351	C35	0.092000	0.654300	0.672700
C361	C36	0.890400	0.052200	0.581600
C371	C37	0.378000	0.342500	0.299300
C381	C38	0.027750	0.718000	0.733900
C391	C39	0.001140	0.942020	0.813700
C401	C40	0.520350	0.218000	0.233900
C411	C41	0.622000	0.657500	0.700700
C421	C42	0.019800	0.157500	0.200700
C431	C43	0.893100	0.767800	0.838400
C441	C44	0.781800	0.859500	0.421700
C451	C45	0.118500	0.652900	0.479500
C461	C46	0.305100	0.721200	0.042400
C471	C47	0.694900	0.278800	0.957600
C481	C48	0.938110	0.860780	0.429400
N11	N1	0.589720	0.190060	0.296100
N21	N2	0.664060	0.464880	0.904600
N31	N3	0.335940	0.535120	0.095400
N41	N4	0.539500	0.336200	0.950200
N51	N5	0.393260	0.310180	0.233100
N61	N6	0.936540	0.189820	0.266900
N71	N7	0.033540	0.035120	0.595400
N81	N8	0.825900	0.163800	0.549800
N91	N9	0.174100	0.836200	0.450200
N101	N10	0.410280	0.809940	0.703900
N111	N11	0.063460	0.810180	0.733100
N121	N12	0.966460	0.964880	0.404600
N131	N13	0.075880	0.309940	0.203900
N141	N14	0.924120	0.690060	0.796100
N151	N15	0.460500	0.663800	0.049800
N161	N16	0.606740	0.689820	0.766900
O11	O1	0.163920	0.497940	0.260820
O21	O2	0.484340	0.338410	0.445910
O31	O3	0.965820	0.727060	0.042900
O41	O4	0.700770	0.946760	0.381900
O51	O5	0.322680	0.817300	0.573540
O61	O6	0.113920	0.901570	0.004190
O71	O7	0.677320	0.182700	0.426460
O81	O8	0.731340	0.838410	0.945910
O91	O9	0.922680	0.002060	0.239180
O101	O10	0.077320	0.997940	0.760820
O111	O11	0.034180	0.272940	0.957100
O121	O12	0.515660	0.661590	0.554090
O131	O13	0.791060	0.532160	0.621120
O141	O14	0.264220	0.227060	0.542900
O151	O15	0.286480	0.317300	0.073540
O161	O16	0.713520	0.682700	0.926460
O171	O17	0.208940	0.467840	0.378880
O181	O18	0.735780	0.772940	0.457100
O191	O19	0.836080	0.502060	0.739180
O201	O20	0.019680	0.598430	0.495810
O211	O21	0.344650	0.900000	0.017900
O221	O22	0.980320	0.401570	0.504190
O231	O23	0.970570	0.446760	0.881900
O241	O24	0.886080	0.098430	0.995810
O251	O25	0.944340	0.967840	0.878880
O261	O26	0.268660	0.161590	0.054090
O271	O27	0.029430	0.553240	0.118100
O281	O28	0.655350	0.100000	0.982100
O291	O29	0.299230	0.053240	0.618100
O301	O30	0.262550	0.600000	0.482100
O311	O31	0.055660	0.032160	0.121120
O321	O32	0.737450	0.400000	0.517900
