data_ZOYKAB_clean_PM
_symmetry_space_group_name_H-M	'P1'
_cell_length_a	13.072100
_cell_length_b	13.072100
_cell_length_c	11.146600
_cell_angle_alpha	90.000000
_cell_angle_beta	90.000000
_cell_angle_gamma	90.000000
_symmetry_Int_Tables_number 1

loop_
_symmetry_equiv_pos_as_xyz
'x,y,z'

loop_
_atom_site_label
_atom_site_type_symbol
_atom_site_fract_x
_atom_site_fract_y
_atom_site_fract_z
Mn11	Mn1	0.758230	0.488570	0.311340
Mn21	Mn2	0.751830	0.719640	0.159870
O11	O1	0.643300	0.594500	0.348600
O21	O2	0.591000	0.729800	0.240300
O31	O3	0.371000	0.365100	0.514500
O41	O4	0.256100	0.444900	0.626200
O51	O5	0.868000	0.256800	0.344100
O61	O6	0.877300	0.398600	0.235900
O71	O7	0.168500	0.255300	0.815700
O81	O8	0.128300	0.408600	0.885900
C11	C1	0.575200	0.660600	0.318600
C21	C2	0.326700	0.446300	0.546000
C31	C3	0.902600	0.309100	0.259900
C41	C4	0.131700	0.313400	0.892500
C51	C5	0.353600	0.546700	0.488800
C61	C6	0.445600	0.556800	0.430400
H11	H1	0.488900	0.500700	0.423000
C71	C7	0.474200	0.652300	0.381700
C81	C8	0.410600	0.735000	0.394200
H21	H2	0.429500	0.798000	0.362300
C91	C9	0.318200	0.725200	0.454300
H31	H3	0.275900	0.781900	0.463100
C101	C10	0.288000	0.631500	0.501500
H41	H4	0.223700	0.624600	0.542400
C111	C11	0.980100	0.260100	0.178900
C121	C12	0.018000	0.310700	0.078500
H51	H5	0.997300	0.377400	0.062200
C131	C13	0.086400	0.262100	0.002800
C141	C14	0.119000	0.162900	0.026800
H61	H6	0.163900	0.129500	0.975300
C151	C15	0.083300	0.115500	0.128600
H71	H7	0.108900	0.051400	0.148700
C161	C16	0.010600	0.159800	0.202100
H81	H8	0.982600	0.123500	0.265900
Mn31	Mn3	0.241770	0.511430	0.811340
Mn41	Mn4	0.248170	0.280360	0.659870
O91	O9	0.356700	0.405500	0.848600
O101	O10	0.409000	0.270200	0.740300
O111	O11	0.629000	0.634900	0.014500
O121	O12	0.743900	0.555100	0.126200
O131	O13	0.132000	0.743200	0.844100
O141	O14	0.122700	0.601400	0.735900
O151	O15	0.831500	0.744700	0.315700
O161	O16	0.871700	0.591400	0.385900
C171	C17	0.424800	0.339400	0.818600
C181	C18	0.673300	0.553700	0.046000
C191	C19	0.097400	0.690900	0.759900
C201	C20	0.868300	0.686600	0.392500
C211	C21	0.646400	0.453300	0.988800
C221	C22	0.554400	0.443200	0.930400
H91	H9	0.511100	0.499300	0.923000
C231	C23	0.525800	0.347700	0.881700
C241	C24	0.589400	0.265000	0.894200
H101	H10	0.570500	0.202000	0.862300
C251	C25	0.681800	0.274800	0.954300
H111	H11	0.724100	0.218100	0.963100
C261	C26	0.712000	0.368500	0.001500
H121	H12	0.776300	0.375400	0.042400
C271	C27	0.019900	0.739900	0.678900
C281	C28	0.982000	0.689300	0.578500
H131	H13	0.002700	0.622600	0.562200
C291	C29	0.913600	0.737900	0.502800
C301	C30	0.881000	0.837100	0.526800
H141	H14	0.836100	0.870500	0.475300
C311	C31	0.916700	0.884500	0.628600
H151	H15	0.891100	0.948600	0.648700
C321	C32	0.989400	0.840200	0.702100
H161	H16	0.017400	0.876500	0.765900
Mn51	Mn5	0.511430	0.758230	0.061340
Mn61	Mn6	0.280360	0.751830	0.909870
O171	O17	0.405500	0.643300	0.098600
O181	O18	0.270200	0.591000	0.990300
O191	O19	0.634900	0.371000	0.264500
O201	O20	0.555100	0.256100	0.376200
O211	O21	0.743200	0.868000	0.094100
O221	O22	0.601400	0.877300	0.985900
O231	O23	0.744700	0.168500	0.565700
O241	O24	0.591400	0.128300	0.635900
C331	C33	0.339400	0.575200	0.068600
C341	C34	0.553700	0.326700	0.296000
C351	C35	0.690900	0.902600	0.009900
C361	C36	0.686600	0.131700	0.642500
C371	C37	0.453300	0.353600	0.238800
C381	C38	0.443200	0.445600	0.180400
H171	H17	0.499300	0.488900	0.173000
C391	C39	0.347700	0.474200	0.131700
C401	C40	0.265000	0.410600	0.144200
H181	H18	0.202000	0.429500	0.112300
C411	C41	0.274800	0.318200	0.204300
H191	H19	0.218100	0.275900	0.213100
C421	C42	0.368500	0.288000	0.251500
H201	H20	0.375400	0.223700	0.292400
C431	C43	0.739900	0.980100	0.928900
C441	C44	0.689300	0.018000	0.828500
H211	H21	0.622600	0.997300	0.812200
C451	C45	0.737900	0.086400	0.752800
C461	C46	0.837100	0.119000	0.776800
H221	H22	0.870500	0.163900	0.725300
C471	C47	0.884500	0.083300	0.878600
H231	H23	0.948600	0.108900	0.898700
C481	C48	0.840200	0.010600	0.952100
H241	H24	0.876500	0.982600	0.015900
Mn71	Mn7	0.488570	0.241770	0.561340
Mn81	Mn8	0.719640	0.248170	0.409870
O251	O25	0.594500	0.356700	0.598600
O261	O26	0.729800	0.409000	0.490300
O271	O27	0.365100	0.629000	0.764500
O281	O28	0.444900	0.743900	0.876200
O291	O29	0.256800	0.132000	0.594100
O301	O30	0.398600	0.122700	0.485900
O311	O31	0.255300	0.831500	0.065700
O321	O32	0.408600	0.871700	0.135900
C491	C49	0.660600	0.424800	0.568600
C501	C50	0.446300	0.673300	0.796000
C511	C51	0.309100	0.097400	0.509900
C521	C52	0.313400	0.868300	0.142500
C531	C53	0.546700	0.646400	0.738800
C541	C54	0.556800	0.554400	0.680400
H251	H25	0.500700	0.511100	0.673000
C551	C55	0.652300	0.525800	0.631700
C561	C56	0.735000	0.589400	0.644200
H261	H26	0.798000	0.570500	0.612300
C571	C57	0.725200	0.681800	0.704300
H271	H27	0.781900	0.724100	0.713100
C581	C58	0.631500	0.712000	0.751500
H281	H28	0.624600	0.776300	0.792400
C591	C59	0.260100	0.019900	0.428900
C601	C60	0.310700	0.982000	0.328500
H291	H29	0.377400	0.002700	0.312200
C611	C61	0.262100	0.913600	0.252800
C621	C62	0.162900	0.881000	0.276800
H301	H30	0.129500	0.836100	0.225300
C631	C63	0.115500	0.916700	0.378600
H311	H31	0.051400	0.891100	0.398700
C641	C64	0.159800	0.989400	0.452100
H321	H32	0.123500	0.017400	0.515900
