data_ZOZHON_clean_PM
_symmetry_space_group_name_H-M	'P1'
_cell_length_a	23.316000
_cell_length_b	28.011000
_cell_length_c	36.079000
_cell_angle_alpha	90.000000
_cell_angle_beta	90.000000
_cell_angle_gamma	90.000000
_symmetry_Int_Tables_number 1

loop_
_symmetry_equiv_pos_as_xyz
'x,y,z'

loop_
_atom_site_label
_atom_site_type_symbol
_atom_site_fract_x
_atom_site_fract_y
_atom_site_fract_z
O11	O1	0.809000	0.166870	0.100090
O21	O2	0.831640	0.186950	0.157790
O31	O3	0.750330	0.320280	0.294500
O41	O4	0.678430	0.369330	0.312010
O51	O5	0.834310	0.531700	0.105110
O61	O6	0.765700	0.570190	0.135130
N11	N1	0.682060	0.307330	0.121800
N21	N2	0.643590	0.355550	0.177350
N31	N3	0.679800	0.408810	0.120300
C11	C1	0.699340	0.284490	0.090880
C21	C2	0.738090	0.247150	0.092090
C31	C3	0.759810	0.232660	0.126130
C41	C4	0.742500	0.256330	0.158100
C51	C5	0.703880	0.293790	0.155030
C61	C6	0.684000	0.322630	0.186320
C71	C7	0.705180	0.318580	0.222040
C81	C8	0.683310	0.348480	0.249330
C91	C9	0.640740	0.381100	0.240110
C101	C10	0.622470	0.384290	0.204010
C111	C11	0.802990	0.192540	0.128430
C121	C12	0.706300	0.345310	0.288850
C131	C13	0.736770	0.404750	0.116080
C141	C14	0.772120	0.444510	0.114920
C151	C15	0.748400	0.489530	0.119230
C161	C16	0.689700	0.493940	0.123220
C171	C17	0.655930	0.452970	0.123280
C181	C18	0.785800	0.534040	0.120430
H11	H1	0.680000	0.296800	0.070300
H21	H2	0.756200	0.233900	0.073200
H31	H3	0.735900	0.297500	0.227600
H41	H4	0.756900	0.247000	0.181700
H51	H5	0.624900	0.401900	0.258000
H61	H6	0.594200	0.403100	0.194100
H71	H7	0.751500	0.371500	0.117800
H81	H8	0.810200	0.438200	0.115700
H91	H9	0.669200	0.521100	0.125600
O71	O7	0.809000	0.666870	0.600090
O81	O8	0.831640	0.686950	0.657790
O91	O9	0.750330	0.820280	0.794500
O101	O10	0.678430	0.869330	0.812010
O111	O11	0.834310	0.031700	0.605110
O121	O12	0.765700	0.070190	0.635130
N41	N4	0.682060	0.807330	0.621800
N51	N5	0.643590	0.855550	0.677350
N61	N6	0.679800	0.908810	0.620300
C191	C19	0.699340	0.784490	0.590880
C201	C20	0.738090	0.747150	0.592090
C211	C21	0.759810	0.732660	0.626130
C221	C22	0.742500	0.756330	0.658100
C231	C23	0.703880	0.793790	0.655030
C241	C24	0.684000	0.822630	0.686320
C251	C25	0.705180	0.818580	0.722040
C261	C26	0.683310	0.848480	0.749330
C271	C27	0.640740	0.881100	0.740110
C281	C28	0.622470	0.884290	0.704010
C291	C29	0.802990	0.692540	0.628430
C301	C30	0.706300	0.845310	0.788850
C311	C31	0.736770	0.904750	0.616080
C321	C32	0.772120	0.944510	0.614920
C331	C33	0.748400	0.989530	0.619230
C341	C34	0.689700	0.993940	0.623220
C351	C35	0.655930	0.952970	0.623280
C361	C36	0.785800	0.034040	0.620430
H101	H10	0.680000	0.796800	0.570300
H111	H11	0.756200	0.733900	0.573200
H121	H12	0.735900	0.797500	0.727600
H131	H13	0.756900	0.747000	0.681700
H141	H14	0.624900	0.901900	0.758000
H151	H15	0.594200	0.903100	0.694100
H161	H16	0.751500	0.871500	0.617800
H171	H17	0.810200	0.938200	0.615700
H181	H18	0.669200	0.021100	0.625600
O131	O13	0.309000	0.166870	0.600090
O141	O14	0.331640	0.186950	0.657790
O151	O15	0.250330	0.320280	0.794500
O161	O16	0.178430	0.369330	0.812010
O171	O17	0.334310	0.531700	0.605110
O181	O18	0.265700	0.570190	0.635130
N71	N7	0.182060	0.307330	0.621800
N81	N8	0.143590	0.355550	0.677350
N91	N9	0.179800	0.408810	0.620300
C371	C37	0.199340	0.284490	0.590880
C381	C38	0.238090	0.247150	0.592090
C391	C39	0.259810	0.232660	0.626130
C401	C40	0.242500	0.256330	0.658100
C411	C41	0.203880	0.293790	0.655030
C421	C42	0.184000	0.322630	0.686320
C431	C43	0.205180	0.318580	0.722040
C441	C44	0.183310	0.348480	0.749330
C451	C45	0.140740	0.381100	0.740110
C461	C46	0.122470	0.384290	0.704010
C471	C47	0.302990	0.192540	0.628430
C481	C48	0.206300	0.345310	0.788850
C491	C49	0.236770	0.404750	0.616080
C501	C50	0.272120	0.444510	0.614920
C511	C51	0.248400	0.489530	0.619230
C521	C52	0.189700	0.493940	0.623220
C531	C53	0.155930	0.452970	0.623280
C541	C54	0.285800	0.534040	0.620430
H191	H19	0.180000	0.296800	0.570300
H201	H20	0.256200	0.233900	0.573200
H211	H21	0.235900	0.297500	0.727600
H221	H22	0.256900	0.247000	0.681700
H231	H23	0.124900	0.401900	0.758000
H241	H24	0.094200	0.403100	0.694100
H251	H25	0.251500	0.371500	0.617800
H261	H26	0.310200	0.438200	0.615700
H271	H27	0.169200	0.521100	0.625600
O191	O19	0.309000	0.666870	0.100090
O201	O20	0.331640	0.686950	0.157790
O211	O21	0.250330	0.820280	0.294500
O221	O22	0.178430	0.869330	0.312010
O231	O23	0.334310	0.031700	0.105110
O241	O24	0.265700	0.070190	0.135130
N101	N10	0.182060	0.807330	0.121800
N111	N11	0.143590	0.855550	0.177350
N121	N12	0.179800	0.908810	0.120300
C551	C55	0.199340	0.784490	0.090880
C561	C56	0.238090	0.747150	0.092090
C571	C57	0.259810	0.732660	0.126130
C581	C58	0.242500	0.756330	0.158100
C591	C59	0.203880	0.793790	0.155030
C601	C60	0.184000	0.822630	0.186320
C611	C61	0.205180	0.818580	0.222040
C621	C62	0.183310	0.848480	0.249330
C631	C63	0.140740	0.881100	0.240110
C641	C64	0.122470	0.884290	0.204010
C651	C65	0.302990	0.692540	0.128430
C661	C66	0.206300	0.845310	0.288850
C671	C67	0.236770	0.904750	0.116080
C681	C68	0.272120	0.944510	0.114920
C691	C69	0.248400	0.989530	0.119230
C701	C70	0.189700	0.993940	0.123220
C711	C71	0.155930	0.952970	0.123280
C721	C72	0.285800	0.034040	0.120430
H281	H28	0.180000	0.796800	0.070300
H291	H29	0.256200	0.733900	0.073200
H301	H30	0.235900	0.797500	0.227600
H311	H31	0.256900	0.747000	0.181700
H321	H32	0.124900	0.901900	0.258000
H331	H33	0.094200	0.903100	0.194100
H341	H34	0.251500	0.871500	0.117800
H351	H35	0.310200	0.938200	0.115700
H361	H36	0.169200	0.021100	0.125600
O251	O25	0.941000	0.583130	0.100090
O261	O26	0.918360	0.563050	0.157790
O271	O27	0.999670	0.429720	0.294500
O281	O28	0.071570	0.380670	0.312010
O291	O29	0.915690	0.218300	0.105110
O301	O30	0.984300	0.179810	0.135130
N131	N13	0.067940	0.442670	0.121800
N141	N14	0.106410	0.394450	0.177350
N151	N15	0.070200	0.341190	0.120300
C731	C73	0.050660	0.465510	0.090880
C741	C74	0.011910	0.502850	0.092090
C751	C75	0.990190	0.517340	0.126130
C761	C76	0.007500	0.493670	0.158100
C771	C77	0.046120	0.456210	0.155030
C781	C78	0.066000	0.427370	0.186320
C791	C79	0.044820	0.431420	0.222040
C801	C80	0.066690	0.401520	0.249330
C811	C81	0.109260	0.368900	0.240110
C821	C82	0.127530	0.365710	0.204010
C831	C83	0.947010	0.557460	0.128430
C841	C84	0.043700	0.404690	0.288850
C851	C85	0.013230	0.345250	0.116080
C861	C86	0.977880	0.305490	0.114920
C871	C87	0.001600	0.260470	0.119230
C881	C88	0.060300	0.256060	0.123220
C891	C89	0.094070	0.297030	0.123280
C901	C90	0.964200	0.215960	0.120430
H371	H37	0.070000	0.453200	0.070300
H381	H38	0.993800	0.516100	0.073200
H391	H39	0.014100	0.452500	0.227600
H401	H40	0.993100	0.503000	0.181700
H411	H41	0.125100	0.348100	0.258000
H421	H42	0.155800	0.346900	0.194100
H431	H43	0.998500	0.378500	0.117800
H441	H44	0.939800	0.311800	0.115700
H451	H45	0.080800	0.228900	0.125600
O311	O31	0.941000	0.083130	0.600090
O321	O32	0.918360	0.063050	0.657790
O331	O33	0.999670	0.929720	0.794500
O341	O34	0.071570	0.880670	0.812010
O351	O35	0.915690	0.718300	0.605110
O361	O36	0.984300	0.679810	0.635130
N161	N16	0.067940	0.942670	0.621800
N171	N17	0.106410	0.894450	0.677350
N181	N18	0.070200	0.841190	0.620300
C911	C91	0.050660	0.965510	0.590880
C921	C92	0.011910	0.002850	0.592090
C931	C93	0.990190	0.017340	0.626130
C941	C94	0.007500	0.993670	0.658100
C951	C95	0.046120	0.956210	0.655030
C961	C96	0.066000	0.927370	0.686320
C971	C97	0.044820	0.931420	0.722040
C981	C98	0.066690	0.901520	0.749330
C991	C99	0.109260	0.868900	0.740110
C1001	C100	0.127530	0.865710	0.704010
C1011	C101	0.947010	0.057460	0.628430
C1021	C102	0.043700	0.904690	0.788850
C1031	C103	0.013230	0.845250	0.616080
C1041	C104	0.977880	0.805490	0.614920
C1051	C105	0.001600	0.760470	0.619230
C1061	C106	0.060300	0.756060	0.623220
C1071	C107	0.094070	0.797030	0.623280
C1081	C108	0.964200	0.715960	0.620430
H461	H46	0.070000	0.953200	0.570300
H471	H47	0.993800	0.016100	0.573200
H481	H48	0.014100	0.952500	0.727600
H491	H49	0.993100	0.003000	0.681700
H501	H50	0.125100	0.848100	0.758000
H511	H51	0.155800	0.846900	0.694100
H521	H52	0.998500	0.878500	0.617800
H531	H53	0.939800	0.811800	0.615700
H541	H54	0.080800	0.728900	0.625600
O371	O37	0.441000	0.583130	0.600090
O381	O38	0.418360	0.563050	0.657790
O391	O39	0.499670	0.429720	0.794500
O401	O40	0.571570	0.380670	0.812010
O411	O41	0.415690	0.218300	0.605110
O421	O42	0.484300	0.179810	0.635130
N191	N19	0.567940	0.442670	0.621800
N201	N20	0.606410	0.394450	0.677350
N211	N21	0.570200	0.341190	0.620300
C1091	C109	0.550660	0.465510	0.590880
C1101	C110	0.511910	0.502850	0.592090
C1111	C111	0.490190	0.517340	0.626130
C1121	C112	0.507500	0.493670	0.658100
C1131	C113	0.546120	0.456210	0.655030
C1141	C114	0.566000	0.427370	0.686320
C1151	C115	0.544820	0.431420	0.722040
C1161	C116	0.566690	0.401520	0.749330
C1171	C117	0.609260	0.368900	0.740110
C1181	C118	0.627530	0.365710	0.704010
C1191	C119	0.447010	0.557460	0.628430
C1201	C120	0.543700	0.404690	0.788850
C1211	C121	0.513230	0.345250	0.616080
C1221	C122	0.477880	0.305490	0.614920
C1231	C123	0.501600	0.260470	0.619230
C1241	C124	0.560300	0.256060	0.623220
C1251	C125	0.594070	0.297030	0.623280
C1261	C126	0.464200	0.215960	0.620430
H551	H55	0.570000	0.453200	0.570300
H561	H56	0.493800	0.516100	0.573200
H571	H57	0.514100	0.452500	0.727600
H581	H58	0.493100	0.503000	0.681700
H591	H59	0.625100	0.348100	0.758000
H601	H60	0.655800	0.346900	0.694100
H611	H61	0.498500	0.378500	0.617800
H621	H62	0.439800	0.311800	0.615700
H631	H63	0.580800	0.228900	0.625600
O431	O43	0.441000	0.083130	0.100090
O441	O44	0.418360	0.063050	0.157790
O451	O45	0.499670	0.929720	0.294500
O461	O46	0.571570	0.880670	0.312010
O471	O47	0.415690	0.718300	0.105110
O481	O48	0.484300	0.679810	0.135130
N221	N22	0.567940	0.942670	0.121800
N231	N23	0.606410	0.894450	0.177350
N241	N24	0.570200	0.841190	0.120300
C1271	C127	0.550660	0.965510	0.090880
C1281	C128	0.511910	0.002850	0.092090
C1291	C129	0.490190	0.017340	0.126130
C1301	C130	0.507500	0.993670	0.158100
C1311	C131	0.546120	0.956210	0.155030
C1321	C132	0.566000	0.927370	0.186320
C1331	C133	0.544820	0.931420	0.222040
C1341	C134	0.566690	0.901520	0.249330
C1351	C135	0.609260	0.868900	0.240110
C1361	C136	0.627530	0.865710	0.204010
C1371	C137	0.447010	0.057460	0.128430
C1381	C138	0.543700	0.904690	0.288850
C1391	C139	0.513230	0.845250	0.116080
C1401	C140	0.477880	0.805490	0.114920
C1411	C141	0.501600	0.760470	0.119230
C1421	C142	0.560300	0.756060	0.123220
C1431	C143	0.594070	0.797030	0.123280
C1441	C144	0.464200	0.715960	0.120430
H641	H64	0.570000	0.953200	0.070300
H651	H65	0.493800	0.016100	0.073200
H661	H66	0.514100	0.952500	0.227600
H671	H67	0.493100	0.003000	0.181700
H681	H68	0.625100	0.848100	0.258000
H691	H69	0.655800	0.846900	0.194100
H701	H70	0.498500	0.878500	0.117800
H711	H71	0.439800	0.811800	0.115700
H721	H72	0.580800	0.728900	0.125600
O491	O49	0.941000	0.166870	0.649910
O501	O50	0.918360	0.186950	0.592210
O511	O51	0.999670	0.320280	0.455500
O521	O52	0.071570	0.369330	0.437990
O531	O53	0.915690	0.531700	0.644890
O541	O54	0.984300	0.570190	0.614870
N251	N25	0.067940	0.307330	0.628200
N261	N26	0.106410	0.355550	0.572650
N271	N27	0.070200	0.408810	0.629700
C1451	C145	0.050660	0.284490	0.659120
C1461	C146	0.011910	0.247150	0.657910
C1471	C147	0.990190	0.232660	0.623870
C1481	C148	0.007500	0.256330	0.591900
C1491	C149	0.046120	0.293790	0.594970
C1501	C150	0.066000	0.322630	0.563680
C1511	C151	0.044820	0.318580	0.527960
C1521	C152	0.066690	0.348480	0.500670
C1531	C153	0.109260	0.381100	0.509890
C1541	C154	0.127530	0.384290	0.545990
C1551	C155	0.947010	0.192540	0.621570
C1561	C156	0.043700	0.345310	0.461150
C1571	C157	0.013230	0.404750	0.633920
C1581	C158	0.977880	0.444510	0.635080
C1591	C159	0.001600	0.489530	0.630770
C1601	C160	0.060300	0.493940	0.626780
C1611	C161	0.094070	0.452970	0.626720
C1621	C162	0.964200	0.534040	0.629570
H731	H73	0.070000	0.296800	0.679700
H741	H74	0.993800	0.233900	0.676800
H751	H75	0.014100	0.297500	0.522400
H761	H76	0.993100	0.247000	0.568300
H771	H77	0.125100	0.401900	0.492000
H781	H78	0.155800	0.403100	0.555900
H791	H79	0.998500	0.371500	0.632200
H801	H80	0.939800	0.438200	0.634300
H811	H81	0.080800	0.521100	0.624400
O551	O55	0.941000	0.666870	0.149910
O561	O56	0.918360	0.686950	0.092210
O571	O57	0.999670	0.820280	0.955500
O581	O58	0.071570	0.869330	0.937990
O591	O59	0.915690	0.031700	0.144890
O601	O60	0.984300	0.070190	0.114870
N281	N28	0.067940	0.807330	0.128200
N291	N29	0.106410	0.855550	0.072650
N301	N30	0.070200	0.908810	0.129700
C1631	C163	0.050660	0.784490	0.159120
C1641	C164	0.011910	0.747150	0.157910
C1651	C165	0.990190	0.732660	0.123870
C1661	C166	0.007500	0.756330	0.091900
C1671	C167	0.046120	0.793790	0.094970
C1681	C168	0.066000	0.822630	0.063680
C1691	C169	0.044820	0.818580	0.027960
C1701	C170	0.066690	0.848480	0.000670
C1711	C171	0.109260	0.881100	0.009890
C1721	C172	0.127530	0.884290	0.045990
C1731	C173	0.947010	0.692540	0.121570
C1741	C174	0.043700	0.845310	0.961150
C1751	C175	0.013230	0.904750	0.133920
C1761	C176	0.977880	0.944510	0.135080
C1771	C177	0.001600	0.989530	0.130770
C1781	C178	0.060300	0.993940	0.126780
C1791	C179	0.094070	0.952970	0.126720
C1801	C180	0.964200	0.034040	0.129570
H821	H82	0.070000	0.796800	0.179700
H831	H83	0.993800	0.733900	0.176800
H841	H84	0.014100	0.797500	0.022400
H851	H85	0.993100	0.747000	0.068300
H861	H86	0.125100	0.901900	0.992000
H871	H87	0.155800	0.903100	0.055900
H881	H88	0.998500	0.871500	0.132200
H891	H89	0.939800	0.938200	0.134300
H901	H90	0.080800	0.021100	0.124400
O611	O61	0.441000	0.166870	0.149910
O621	O62	0.418360	0.186950	0.092210
O631	O63	0.499670	0.320280	0.955500
O641	O64	0.571570	0.369330	0.937990
O651	O65	0.415690	0.531700	0.144890
O661	O66	0.484300	0.570190	0.114870
N311	N31	0.567940	0.307330	0.128200
N321	N32	0.606410	0.355550	0.072650
N331	N33	0.570200	0.408810	0.129700
C1811	C181	0.550660	0.284490	0.159120
C1821	C182	0.511910	0.247150	0.157910
C1831	C183	0.490190	0.232660	0.123870
C1841	C184	0.507500	0.256330	0.091900
C1851	C185	0.546120	0.293790	0.094970
C1861	C186	0.566000	0.322630	0.063680
C1871	C187	0.544820	0.318580	0.027960
C1881	C188	0.566690	0.348480	0.000670
C1891	C189	0.609260	0.381100	0.009890
C1901	C190	0.627530	0.384290	0.045990
C1911	C191	0.447010	0.192540	0.121570
C1921	C192	0.543700	0.345310	0.961150
C1931	C193	0.513230	0.404750	0.133920
C1941	C194	0.477880	0.444510	0.135080
C1951	C195	0.501600	0.489530	0.130770
C1961	C196	0.560300	0.493940	0.126780
C1971	C197	0.594070	0.452970	0.126720
C1981	C198	0.464200	0.534040	0.129570
H911	H91	0.570000	0.296800	0.179700
H921	H92	0.493800	0.233900	0.176800
H931	H93	0.514100	0.297500	0.022400
H941	H94	0.493100	0.247000	0.068300
H951	H95	0.625100	0.401900	0.992000
H961	H96	0.655800	0.403100	0.055900
H971	H97	0.498500	0.371500	0.132200
H981	H98	0.439800	0.438200	0.134300
H991	H99	0.580800	0.521100	0.124400
O671	O67	0.441000	0.666870	0.649910
O681	O68	0.418360	0.686950	0.592210
O691	O69	0.499670	0.820280	0.455500
O701	O70	0.571570	0.869330	0.437990
O711	O71	0.415690	0.031700	0.644890
O721	O72	0.484300	0.070190	0.614870
N341	N34	0.567940	0.807330	0.628200
N351	N35	0.606410	0.855550	0.572650
N361	N36	0.570200	0.908810	0.629700
C1991	C199	0.550660	0.784490	0.659120
C2001	C200	0.511910	0.747150	0.657910
C2011	C201	0.490190	0.732660	0.623870
C2021	C202	0.507500	0.756330	0.591900
C2031	C203	0.546120	0.793790	0.594970
C2041	C204	0.566000	0.822630	0.563680
C2051	C205	0.544820	0.818580	0.527960
C2061	C206	0.566690	0.848480	0.500670
C2071	C207	0.609260	0.881100	0.509890
C2081	C208	0.627530	0.884290	0.545990
C2091	C209	0.447010	0.692540	0.621570
C2101	C210	0.543700	0.845310	0.461150
C2111	C211	0.513230	0.904750	0.633920
C2121	C212	0.477880	0.944510	0.635080
C2131	C213	0.501600	0.989530	0.630770
C2141	C214	0.560300	0.993940	0.626780
C2151	C215	0.594070	0.952970	0.626720
C2161	C216	0.464200	0.034040	0.629570
H1001	H100	0.570000	0.796800	0.679700
H1011	H101	0.493800	0.733900	0.676800
H1021	H102	0.514100	0.797500	0.522400
H1031	H103	0.493100	0.747000	0.568300
H1041	H104	0.625100	0.901900	0.492000
H1051	H105	0.655800	0.903100	0.555900
H1061	H106	0.498500	0.871500	0.632200
H1071	H107	0.439800	0.938200	0.634300
H1081	H108	0.580800	0.021100	0.624400
O731	O73	0.809000	0.583130	0.649910
O741	O74	0.831640	0.563050	0.592210
O751	O75	0.750330	0.429720	0.455500
O761	O76	0.678430	0.380670	0.437990
O771	O77	0.834310	0.218300	0.644890
O781	O78	0.765700	0.179810	0.614870
N371	N37	0.682060	0.442670	0.628200
N381	N38	0.643590	0.394450	0.572650
N391	N39	0.679800	0.341190	0.629700
C2171	C217	0.699340	0.465510	0.659120
C2181	C218	0.738090	0.502850	0.657910
C2191	C219	0.759810	0.517340	0.623870
C2201	C220	0.742500	0.493670	0.591900
C2211	C221	0.703880	0.456210	0.594970
C2221	C222	0.684000	0.427370	0.563680
C2231	C223	0.705180	0.431420	0.527960
C2241	C224	0.683310	0.401520	0.500670
C2251	C225	0.640740	0.368900	0.509890
C2261	C226	0.622470	0.365710	0.545990
C2271	C227	0.802990	0.557460	0.621570
C2281	C228	0.706300	0.404690	0.461150
C2291	C229	0.736770	0.345250	0.633920
C2301	C230	0.772120	0.305490	0.635080
C2311	C231	0.748400	0.260470	0.630770
C2321	C232	0.689700	0.256060	0.626780
C2331	C233	0.655930	0.297030	0.626720
C2341	C234	0.785800	0.215960	0.629570
H1091	H109	0.680000	0.453200	0.679700
H1101	H110	0.756200	0.516100	0.676800
H1111	H111	0.735900	0.452500	0.522400
H1121	H112	0.756900	0.503000	0.568300
H1131	H113	0.624900	0.348100	0.492000
H1141	H114	0.594200	0.346900	0.555900
H1151	H115	0.751500	0.378500	0.632200
H1161	H116	0.810200	0.311800	0.634300
H1171	H117	0.669200	0.228900	0.624400
O791	O79	0.809000	0.083130	0.149910
O801	O80	0.831640	0.063050	0.092210
O811	O81	0.750330	0.929720	0.955500
O821	O82	0.678430	0.880670	0.937990
O831	O83	0.834310	0.718300	0.144890
O841	O84	0.765700	0.679810	0.114870
N401	N40	0.682060	0.942670	0.128200
N411	N41	0.643590	0.894450	0.072650
N421	N42	0.679800	0.841190	0.129700
C2351	C235	0.699340	0.965510	0.159120
C2361	C236	0.738090	0.002850	0.157910
C2371	C237	0.759810	0.017340	0.123870
C2381	C238	0.742500	0.993670	0.091900
C2391	C239	0.703880	0.956210	0.094970
C2401	C240	0.684000	0.927370	0.063680
C2411	C241	0.705180	0.931420	0.027960
C2421	C242	0.683310	0.901520	0.000670
C2431	C243	0.640740	0.868900	0.009890
C2441	C244	0.622470	0.865710	0.045990
C2451	C245	0.802990	0.057460	0.121570
C2461	C246	0.706300	0.904690	0.961150
C2471	C247	0.736770	0.845250	0.133920
C2481	C248	0.772120	0.805490	0.135080
C2491	C249	0.748400	0.760470	0.130770
C2501	C250	0.689700	0.756060	0.126780
C2511	C251	0.655930	0.797030	0.126720
C2521	C252	0.785800	0.715960	0.129570
H1181	H118	0.680000	0.953200	0.179700
H1191	H119	0.756200	0.016100	0.176800
H1201	H120	0.735900	0.952500	0.022400
H1211	H121	0.756900	0.003000	0.068300
H1221	H122	0.624900	0.848100	0.992000
H1231	H123	0.594200	0.846900	0.055900
H1241	H124	0.751500	0.878500	0.132200
H1251	H125	0.810200	0.811800	0.134300
H1261	H126	0.669200	0.728900	0.124400
O851	O85	0.309000	0.583130	0.149910
O861	O86	0.331640	0.563050	0.092210
O871	O87	0.250330	0.429720	0.955500
O881	O88	0.178430	0.380670	0.937990
O891	O89	0.334310	0.218300	0.144890
O901	O90	0.265700	0.179810	0.114870
N431	N43	0.182060	0.442670	0.128200
N441	N44	0.143590	0.394450	0.072650
N451	N45	0.179800	0.341190	0.129700
C2531	C253	0.199340	0.465510	0.159120
C2541	C254	0.238090	0.502850	0.157910
C2551	C255	0.259810	0.517340	0.123870
C2561	C256	0.242500	0.493670	0.091900
C2571	C257	0.203880	0.456210	0.094970
C2581	C258	0.184000	0.427370	0.063680
C2591	C259	0.205180	0.431420	0.027960
C2601	C260	0.183310	0.401520	0.000670
C2611	C261	0.140740	0.368900	0.009890
C2621	C262	0.122470	0.365710	0.045990
C2631	C263	0.302990	0.557460	0.121570
C2641	C264	0.206300	0.404690	0.961150
C2651	C265	0.236770	0.345250	0.133920
C2661	C266	0.272120	0.305490	0.135080
C2671	C267	0.248400	0.260470	0.130770
C2681	C268	0.189700	0.256060	0.126780
C2691	C269	0.155930	0.297030	0.126720
C2701	C270	0.285800	0.215960	0.129570
H1271	H127	0.180000	0.453200	0.179700
H1281	H128	0.256200	0.516100	0.176800
H1291	H129	0.235900	0.452500	0.022400
H1301	H130	0.256900	0.503000	0.068300
H1311	H131	0.124900	0.348100	0.992000
H1321	H132	0.094200	0.346900	0.055900
H1331	H133	0.251500	0.378500	0.132200
H1341	H134	0.310200	0.311800	0.134300
H1351	H135	0.169200	0.228900	0.124400
O911	O91	0.309000	0.083130	0.649910
O921	O92	0.331640	0.063050	0.592210
O931	O93	0.250330	0.929720	0.455500
O941	O94	0.178430	0.880670	0.437990
O951	O95	0.334310	0.718300	0.644890
O961	O96	0.265700	0.679810	0.614870
N461	N46	0.182060	0.942670	0.628200
N471	N47	0.143590	0.894450	0.572650
N481	N48	0.179800	0.841190	0.629700
C2711	C271	0.199340	0.965510	0.659120
C2721	C272	0.238090	0.002850	0.657910
C2731	C273	0.259810	0.017340	0.623870
C2741	C274	0.242500	0.993670	0.591900
C2751	C275	0.203880	0.956210	0.594970
C2761	C276	0.184000	0.927370	0.563680
C2771	C277	0.205180	0.931420	0.527960
C2781	C278	0.183310	0.901520	0.500670
C2791	C279	0.140740	0.868900	0.509890
C2801	C280	0.122470	0.865710	0.545990
C2811	C281	0.302990	0.057460	0.621570
C2821	C282	0.206300	0.904690	0.461150
C2831	C283	0.236770	0.845250	0.633920
C2841	C284	0.272120	0.805490	0.635080
C2851	C285	0.248400	0.760470	0.630770
C2861	C286	0.189700	0.756060	0.626780
C2871	C287	0.155930	0.797030	0.626720
C2881	C288	0.285800	0.715960	0.629570
H1361	H136	0.180000	0.953200	0.679700
H1371	H137	0.256200	0.016100	0.676800
H1381	H138	0.235900	0.952500	0.522400
H1391	H139	0.256900	0.003000	0.568300
H1401	H140	0.124900	0.848100	0.492000
H1411	H141	0.094200	0.846900	0.555900
H1421	H142	0.251500	0.878500	0.632200
H1431	H143	0.310200	0.811800	0.634300
H1441	H144	0.169200	0.728900	0.624400
O971	O97	0.191000	0.833130	0.899910
O981	O98	0.168360	0.813050	0.842210
O991	O99	0.249670	0.679720	0.705500
O1001	O100	0.321570	0.630670	0.687990
O1011	O101	0.165690	0.468300	0.894890
O1021	O102	0.234300	0.429810	0.864870
N491	N49	0.317940	0.692670	0.878200
N501	N50	0.356410	0.644450	0.822650
N511	N51	0.320200	0.591190	0.879700
C2891	C289	0.300660	0.715510	0.909120
C2901	C290	0.261910	0.752850	0.907910
C2911	C291	0.240190	0.767340	0.873870
C2921	C292	0.257500	0.743670	0.841900
C2931	C293	0.296120	0.706210	0.844970
C2941	C294	0.316000	0.677370	0.813680
C2951	C295	0.294820	0.681420	0.777960
C2961	C296	0.316690	0.651520	0.750670
C2971	C297	0.359260	0.618900	0.759890
C2981	C298	0.377530	0.615710	0.795990
C2991	C299	0.197010	0.807460	0.871570
C3001	C300	0.293700	0.654690	0.711150
C3011	C301	0.263230	0.595250	0.883920
C3021	C302	0.227880	0.555490	0.885080
C3031	C303	0.251600	0.510470	0.880770
C3041	C304	0.310300	0.506060	0.876780
C3051	C305	0.344070	0.547030	0.876720
C3061	C306	0.214200	0.465960	0.879570
H1451	H145	0.320000	0.703200	0.929700
H1461	H146	0.243800	0.766100	0.926800
H1471	H147	0.264100	0.702500	0.772400
H1481	H148	0.243100	0.753000	0.818300
H1491	H149	0.375100	0.598100	0.742000
H1501	H150	0.405800	0.596900	0.805900
H1511	H151	0.248500	0.628500	0.882200
H1521	H152	0.189800	0.561800	0.884300
H1531	H153	0.330800	0.478900	0.874400
O1031	O103	0.191000	0.333130	0.399910
O1041	O104	0.168360	0.313050	0.342210
O1051	O105	0.249670	0.179720	0.205500
O1061	O106	0.321570	0.130670	0.187990
O1071	O107	0.165690	0.968300	0.394890
O1081	O108	0.234300	0.929810	0.364870
N521	N52	0.317940	0.192670	0.378200
N531	N53	0.356410	0.144450	0.322650
N541	N54	0.320200	0.091190	0.379700
C3071	C307	0.300660	0.215510	0.409120
C3081	C308	0.261910	0.252850	0.407910
C3091	C309	0.240190	0.267340	0.373870
C3101	C310	0.257500	0.243670	0.341900
C3111	C311	0.296120	0.206210	0.344970
C3121	C312	0.316000	0.177370	0.313680
C3131	C313	0.294820	0.181420	0.277960
C3141	C314	0.316690	0.151520	0.250670
C3151	C315	0.359260	0.118900	0.259890
C3161	C316	0.377530	0.115710	0.295990
C3171	C317	0.197010	0.307460	0.371570
C3181	C318	0.293700	0.154690	0.211150
C3191	C319	0.263230	0.095250	0.383920
C3201	C320	0.227880	0.055490	0.385080
C3211	C321	0.251600	0.010470	0.380770
C3221	C322	0.310300	0.006060	0.376780
C3231	C323	0.344070	0.047030	0.376720
C3241	C324	0.214200	0.965960	0.379570
H1541	H154	0.320000	0.203200	0.429700
H1551	H155	0.243800	0.266100	0.426800
H1561	H156	0.264100	0.202500	0.272400
H1571	H157	0.243100	0.253000	0.318300
H1581	H158	0.375100	0.098100	0.242000
H1591	H159	0.405800	0.096900	0.305900
H1601	H160	0.248500	0.128500	0.382200
H1611	H161	0.189800	0.061800	0.384300
H1621	H162	0.330800	0.978900	0.374400
O1091	O109	0.691000	0.833130	0.399910
O1101	O110	0.668360	0.813050	0.342210
O1111	O111	0.749670	0.679720	0.205500
O1121	O112	0.821570	0.630670	0.187990
O1131	O113	0.665690	0.468300	0.394890
O1141	O114	0.734300	0.429810	0.364870
N551	N55	0.817940	0.692670	0.378200
N561	N56	0.856410	0.644450	0.322650
N571	N57	0.820200	0.591190	0.379700
C3251	C325	0.800660	0.715510	0.409120
C3261	C326	0.761910	0.752850	0.407910
C3271	C327	0.740190	0.767340	0.373870
C3281	C328	0.757500	0.743670	0.341900
C3291	C329	0.796120	0.706210	0.344970
C3301	C330	0.816000	0.677370	0.313680
C3311	C331	0.794820	0.681420	0.277960
C3321	C332	0.816690	0.651520	0.250670
C3331	C333	0.859260	0.618900	0.259890
C3341	C334	0.877530	0.615710	0.295990
C3351	C335	0.697010	0.807460	0.371570
C3361	C336	0.793700	0.654690	0.211150
C3371	C337	0.763230	0.595250	0.383920
C3381	C338	0.727880	0.555490	0.385080
C3391	C339	0.751600	0.510470	0.380770
C3401	C340	0.810300	0.506060	0.376780
C3411	C341	0.844070	0.547030	0.376720
C3421	C342	0.714200	0.465960	0.379570
H1631	H163	0.820000	0.703200	0.429700
H1641	H164	0.743800	0.766100	0.426800
H1651	H165	0.764100	0.702500	0.272400
H1661	H166	0.743100	0.753000	0.318300
H1671	H167	0.875100	0.598100	0.242000
H1681	H168	0.905800	0.596900	0.305900
H1691	H169	0.748500	0.628500	0.382200
H1701	H170	0.689800	0.561800	0.384300
H1711	H171	0.830800	0.478900	0.374400
O1151	O115	0.691000	0.333130	0.899910
O1161	O116	0.668360	0.313050	0.842210
O1171	O117	0.749670	0.179720	0.705500
O1181	O118	0.821570	0.130670	0.687990
O1191	O119	0.665690	0.968300	0.894890
O1201	O120	0.734300	0.929810	0.864870
N581	N58	0.817940	0.192670	0.878200
N591	N59	0.856410	0.144450	0.822650
N601	N60	0.820200	0.091190	0.879700
C3431	C343	0.800660	0.215510	0.909120
C3441	C344	0.761910	0.252850	0.907910
C3451	C345	0.740190	0.267340	0.873870
C3461	C346	0.757500	0.243670	0.841900
C3471	C347	0.796120	0.206210	0.844970
C3481	C348	0.816000	0.177370	0.813680
C3491	C349	0.794820	0.181420	0.777960
C3501	C350	0.816690	0.151520	0.750670
C3511	C351	0.859260	0.118900	0.759890
C3521	C352	0.877530	0.115710	0.795990
C3531	C353	0.697010	0.307460	0.871570
C3541	C354	0.793700	0.154690	0.711150
C3551	C355	0.763230	0.095250	0.883920
C3561	C356	0.727880	0.055490	0.885080
C3571	C357	0.751600	0.010470	0.880770
C3581	C358	0.810300	0.006060	0.876780
C3591	C359	0.844070	0.047030	0.876720
C3601	C360	0.714200	0.965960	0.879570
H1721	H172	0.820000	0.203200	0.929700
H1731	H173	0.743800	0.266100	0.926800
H1741	H174	0.764100	0.202500	0.772400
H1751	H175	0.743100	0.253000	0.818300
H1761	H176	0.875100	0.098100	0.742000
H1771	H177	0.905800	0.096900	0.805900
H1781	H178	0.748500	0.128500	0.882200
H1791	H179	0.689800	0.061800	0.884300
H1801	H180	0.830800	0.978900	0.874400
O1211	O121	0.059000	0.416870	0.899910
O1221	O122	0.081640	0.436950	0.842210
O1231	O123	0.000330	0.570280	0.705500
O1241	O124	0.928430	0.619330	0.687990
O1251	O125	0.084310	0.781700	0.894890
O1261	O126	0.015700	0.820190	0.864870
N611	N61	0.932060	0.557330	0.878200
N621	N62	0.893590	0.605550	0.822650
N631	N63	0.929800	0.658810	0.879700
C3611	C361	0.949340	0.534490	0.909120
C3621	C362	0.988090	0.497150	0.907910
C3631	C363	0.009810	0.482660	0.873870
C3641	C364	0.992500	0.506330	0.841900
C3651	C365	0.953880	0.543790	0.844970
C3661	C366	0.934000	0.572630	0.813680
C3671	C367	0.955180	0.568580	0.777960
C3681	C368	0.933310	0.598480	0.750670
C3691	C369	0.890740	0.631100	0.759890
C3701	C370	0.872470	0.634290	0.795990
C3711	C371	0.052990	0.442540	0.871570
C3721	C372	0.956300	0.595310	0.711150
C3731	C373	0.986770	0.654750	0.883920
C3741	C374	0.022120	0.694510	0.885080
C3751	C375	0.998400	0.739530	0.880770
C3761	C376	0.939700	0.743940	0.876780
C3771	C377	0.905930	0.702970	0.876720
C3781	C378	0.035800	0.784040	0.879570
H1811	H181	0.930000	0.546800	0.929700
H1821	H182	0.006200	0.483900	0.926800
H1831	H183	0.985900	0.547500	0.772400
H1841	H184	0.006900	0.497000	0.818300
H1851	H185	0.874900	0.651900	0.742000
H1861	H186	0.844200	0.653100	0.805900
H1871	H187	0.001500	0.621500	0.882200
H1881	H188	0.060200	0.688200	0.884300
H1891	H189	0.919200	0.771100	0.874400
O1271	O127	0.059000	0.916870	0.399910
O1281	O128	0.081640	0.936950	0.342210
O1291	O129	0.000330	0.070280	0.205500
O1301	O130	0.928430	0.119330	0.187990
O1311	O131	0.084310	0.281700	0.394890
O1321	O132	0.015700	0.320190	0.364870
N641	N64	0.932060	0.057330	0.378200
N651	N65	0.893590	0.105550	0.322650
N661	N66	0.929800	0.158810	0.379700
C3791	C379	0.949340	0.034490	0.409120
C3801	C380	0.988090	0.997150	0.407910
C3811	C381	0.009810	0.982660	0.373870
C3821	C382	0.992500	0.006330	0.341900
C3831	C383	0.953880	0.043790	0.344970
C3841	C384	0.934000	0.072630	0.313680
C3851	C385	0.955180	0.068580	0.277960
C3861	C386	0.933310	0.098480	0.250670
C3871	C387	0.890740	0.131100	0.259890
C3881	C388	0.872470	0.134290	0.295990
C3891	C389	0.052990	0.942540	0.371570
C3901	C390	0.956300	0.095310	0.211150
C3911	C391	0.986770	0.154750	0.383920
C3921	C392	0.022120	0.194510	0.385080
C3931	C393	0.998400	0.239530	0.380770
C3941	C394	0.939700	0.243940	0.376780
C3951	C395	0.905930	0.202970	0.376720
C3961	C396	0.035800	0.284040	0.379570
H1901	H190	0.930000	0.046800	0.429700
H1911	H191	0.006200	0.983900	0.426800
H1921	H192	0.985900	0.047500	0.272400
H1931	H193	0.006900	0.997000	0.318300
H1941	H194	0.874900	0.151900	0.242000
H1951	H195	0.844200	0.153100	0.305900
H1961	H196	0.001500	0.121500	0.382200
H1971	H197	0.060200	0.188200	0.384300
H1981	H198	0.919200	0.271100	0.374400
O1331	O133	0.559000	0.416870	0.399910
O1341	O134	0.581640	0.436950	0.342210
O1351	O135	0.500330	0.570280	0.205500
O1361	O136	0.428430	0.619330	0.187990
O1371	O137	0.584310	0.781700	0.394890
O1381	O138	0.515700	0.820190	0.364870
N671	N67	0.432060	0.557330	0.378200
N681	N68	0.393590	0.605550	0.322650
N691	N69	0.429800	0.658810	0.379700
C3971	C397	0.449340	0.534490	0.409120
C3981	C398	0.488090	0.497150	0.407910
C3991	C399	0.509810	0.482660	0.373870
C4001	C400	0.492500	0.506330	0.341900
C4011	C401	0.453880	0.543790	0.344970
C4021	C402	0.434000	0.572630	0.313680
C4031	C403	0.455180	0.568580	0.277960
C4041	C404	0.433310	0.598480	0.250670
C4051	C405	0.390740	0.631100	0.259890
C4061	C406	0.372470	0.634290	0.295990
C4071	C407	0.552990	0.442540	0.371570
C4081	C408	0.456300	0.595310	0.211150
C4091	C409	0.486770	0.654750	0.383920
C4101	C410	0.522120	0.694510	0.385080
C4111	C411	0.498400	0.739530	0.380770
C4121	C412	0.439700	0.743940	0.376780
C4131	C413	0.405930	0.702970	0.376720
C4141	C414	0.535800	0.784040	0.379570
H1991	H199	0.430000	0.546800	0.429700
H2001	H200	0.506200	0.483900	0.426800
H2011	H201	0.485900	0.547500	0.272400
H2021	H202	0.506900	0.497000	0.318300
H2031	H203	0.374900	0.651900	0.242000
H2041	H204	0.344200	0.653100	0.305900
H2051	H205	0.501500	0.621500	0.382200
H2061	H206	0.560200	0.688200	0.384300
H2071	H207	0.419200	0.771100	0.374400
O1391	O139	0.559000	0.916870	0.899910
O1401	O140	0.581640	0.936950	0.842210
O1411	O141	0.500330	0.070280	0.705500
O1421	O142	0.428430	0.119330	0.687990
O1431	O143	0.584310	0.281700	0.894890
O1441	O144	0.515700	0.320190	0.864870
N701	N70	0.432060	0.057330	0.878200
N711	N71	0.393590	0.105550	0.822650
N721	N72	0.429800	0.158810	0.879700
C4151	C415	0.449340	0.034490	0.909120
C4161	C416	0.488090	0.997150	0.907910
C4171	C417	0.509810	0.982660	0.873870
C4181	C418	0.492500	0.006330	0.841900
C4191	C419	0.453880	0.043790	0.844970
C4201	C420	0.434000	0.072630	0.813680
C4211	C421	0.455180	0.068580	0.777960
C4221	C422	0.433310	0.098480	0.750670
C4231	C423	0.390740	0.131100	0.759890
C4241	C424	0.372470	0.134290	0.795990
C4251	C425	0.552990	0.942540	0.871570
C4261	C426	0.456300	0.095310	0.711150
C4271	C427	0.486770	0.154750	0.883920
C4281	C428	0.522120	0.194510	0.885080
C4291	C429	0.498400	0.239530	0.880770
C4301	C430	0.439700	0.243940	0.876780
C4311	C431	0.405930	0.202970	0.876720
C4321	C432	0.535800	0.284040	0.879570
H2081	H208	0.430000	0.046800	0.929700
H2091	H209	0.506200	0.983900	0.926800
H2101	H210	0.485900	0.047500	0.772400
H2111	H211	0.506900	0.997000	0.818300
H2121	H212	0.374900	0.151900	0.742000
H2131	H213	0.344200	0.153100	0.805900
H2141	H214	0.501500	0.121500	0.882200
H2151	H215	0.560200	0.188200	0.884300
H2161	H216	0.419200	0.271100	0.874400
O1451	O145	0.059000	0.833130	0.350090
O1461	O146	0.081640	0.813050	0.407790
O1471	O147	0.000330	0.679720	0.544500
O1481	O148	0.928430	0.630670	0.562010
O1491	O149	0.084310	0.468300	0.355110
O1501	O150	0.015700	0.429810	0.385130
N731	N73	0.932060	0.692670	0.371800
N741	N74	0.893590	0.644450	0.427350
N751	N75	0.929800	0.591190	0.370300
C4331	C433	0.949340	0.715510	0.340880
C4341	C434	0.988090	0.752850	0.342090
C4351	C435	0.009810	0.767340	0.376130
C4361	C436	0.992500	0.743670	0.408100
C4371	C437	0.953880	0.706210	0.405030
C4381	C438	0.934000	0.677370	0.436320
C4391	C439	0.955180	0.681420	0.472040
C4401	C440	0.933310	0.651520	0.499330
C4411	C441	0.890740	0.618900	0.490110
C4421	C442	0.872470	0.615710	0.454010
C4431	C443	0.052990	0.807460	0.378430
C4441	C444	0.956300	0.654690	0.538850
C4451	C445	0.986770	0.595250	0.366080
C4461	C446	0.022120	0.555490	0.364920
C4471	C447	0.998400	0.510470	0.369230
C4481	C448	0.939700	0.506060	0.373220
C4491	C449	0.905930	0.547030	0.373280
C4501	C450	0.035800	0.465960	0.370430
H2171	H217	0.930000	0.703200	0.320300
H2181	H218	0.006200	0.766100	0.323200
H2191	H219	0.985900	0.702500	0.477600
H2201	H220	0.006900	0.753000	0.431700
H2211	H221	0.874900	0.598100	0.508000
H2221	H222	0.844200	0.596900	0.444100
H2231	H223	0.001500	0.628500	0.367800
H2241	H224	0.060200	0.561800	0.365700
H2251	H225	0.919200	0.478900	0.375600
O1511	O151	0.059000	0.333130	0.850090
O1521	O152	0.081640	0.313050	0.907790
O1531	O153	0.000330	0.179720	0.044500
O1541	O154	0.928430	0.130670	0.062010
O1551	O155	0.084310	0.968300	0.855110
O1561	O156	0.015700	0.929810	0.885130
N761	N76	0.932060	0.192670	0.871800
N771	N77	0.893590	0.144450	0.927350
N781	N78	0.929800	0.091190	0.870300
C4511	C451	0.949340	0.215510	0.840880
C4521	C452	0.988090	0.252850	0.842090
C4531	C453	0.009810	0.267340	0.876130
C4541	C454	0.992500	0.243670	0.908100
C4551	C455	0.953880	0.206210	0.905030
C4561	C456	0.934000	0.177370	0.936320
C4571	C457	0.955180	0.181420	0.972040
C4581	C458	0.933310	0.151520	0.999330
C4591	C459	0.890740	0.118900	0.990110
C4601	C460	0.872470	0.115710	0.954010
C4611	C461	0.052990	0.307460	0.878430
C4621	C462	0.956300	0.154690	0.038850
C4631	C463	0.986770	0.095250	0.866080
C4641	C464	0.022120	0.055490	0.864920
C4651	C465	0.998400	0.010470	0.869230
C4661	C466	0.939700	0.006060	0.873220
C4671	C467	0.905930	0.047030	0.873280
C4681	C468	0.035800	0.965960	0.870430
H2261	H226	0.930000	0.203200	0.820300
H2271	H227	0.006200	0.266100	0.823200
H2281	H228	0.985900	0.202500	0.977600
H2291	H229	0.006900	0.253000	0.931700
H2301	H230	0.874900	0.098100	0.008000
H2311	H231	0.844200	0.096900	0.944100
H2321	H232	0.001500	0.128500	0.867800
H2331	H233	0.060200	0.061800	0.865700
H2341	H234	0.919200	0.978900	0.875600
O1571	O157	0.559000	0.833130	0.850090
O1581	O158	0.581640	0.813050	0.907790
O1591	O159	0.500330	0.679720	0.044500
O1601	O160	0.428430	0.630670	0.062010
O1611	O161	0.584310	0.468300	0.855110
O1621	O162	0.515700	0.429810	0.885130
N791	N79	0.432060	0.692670	0.871800
N801	N80	0.393590	0.644450	0.927350
N811	N81	0.429800	0.591190	0.870300
C4691	C469	0.449340	0.715510	0.840880
C4701	C470	0.488090	0.752850	0.842090
C4711	C471	0.509810	0.767340	0.876130
C4721	C472	0.492500	0.743670	0.908100
C4731	C473	0.453880	0.706210	0.905030
C4741	C474	0.434000	0.677370	0.936320
C4751	C475	0.455180	0.681420	0.972040
C4761	C476	0.433310	0.651520	0.999330
C4771	C477	0.390740	0.618900	0.990110
C4781	C478	0.372470	0.615710	0.954010
C4791	C479	0.552990	0.807460	0.878430
C4801	C480	0.456300	0.654690	0.038850
C4811	C481	0.486770	0.595250	0.866080
C4821	C482	0.522120	0.555490	0.864920
C4831	C483	0.498400	0.510470	0.869230
C4841	C484	0.439700	0.506060	0.873220
C4851	C485	0.405930	0.547030	0.873280
C4861	C486	0.535800	0.465960	0.870430
H2351	H235	0.430000	0.703200	0.820300
H2361	H236	0.506200	0.766100	0.823200
H2371	H237	0.485900	0.702500	0.977600
H2381	H238	0.506900	0.753000	0.931700
H2391	H239	0.374900	0.598100	0.008000
H2401	H240	0.344200	0.596900	0.944100
H2411	H241	0.501500	0.628500	0.867800
H2421	H242	0.560200	0.561800	0.865700
H2431	H243	0.419200	0.478900	0.875600
O1631	O163	0.559000	0.333130	0.350090
O1641	O164	0.581640	0.313050	0.407790
O1651	O165	0.500330	0.179720	0.544500
O1661	O166	0.428430	0.130670	0.562010
O1671	O167	0.584310	0.968300	0.355110
O1681	O168	0.515700	0.929810	0.385130
N821	N82	0.432060	0.192670	0.371800
N831	N83	0.393590	0.144450	0.427350
N841	N84	0.429800	0.091190	0.370300
C4871	C487	0.449340	0.215510	0.340880
C4881	C488	0.488090	0.252850	0.342090
C4891	C489	0.509810	0.267340	0.376130
C4901	C490	0.492500	0.243670	0.408100
C4911	C491	0.453880	0.206210	0.405030
C4921	C492	0.434000	0.177370	0.436320
C4931	C493	0.455180	0.181420	0.472040
C4941	C494	0.433310	0.151520	0.499330
C4951	C495	0.390740	0.118900	0.490110
C4961	C496	0.372470	0.115710	0.454010
C4971	C497	0.552990	0.307460	0.378430
C4981	C498	0.456300	0.154690	0.538850
C4991	C499	0.486770	0.095250	0.366080
C5001	C500	0.522120	0.055490	0.364920
C5011	C501	0.498400	0.010470	0.369230
C5021	C502	0.439700	0.006060	0.373220
C5031	C503	0.405930	0.047030	0.373280
C5041	C504	0.535800	0.965960	0.370430
H2441	H244	0.430000	0.203200	0.320300
H2451	H245	0.506200	0.266100	0.323200
H2461	H246	0.485900	0.202500	0.477600
H2471	H247	0.506900	0.253000	0.431700
H2481	H248	0.374900	0.098100	0.508000
H2491	H249	0.344200	0.096900	0.444100
H2501	H250	0.501500	0.128500	0.367800
H2511	H251	0.560200	0.061800	0.365700
H2521	H252	0.419200	0.978900	0.375600
O1691	O169	0.191000	0.416870	0.350090
O1701	O170	0.168360	0.436950	0.407790
O1711	O171	0.249670	0.570280	0.544500
O1721	O172	0.321570	0.619330	0.562010
O1731	O173	0.165690	0.781700	0.355110
O1741	O174	0.234300	0.820190	0.385130
N851	N85	0.317940	0.557330	0.371800
N861	N86	0.356410	0.605550	0.427350
N871	N87	0.320200	0.658810	0.370300
C5051	C505	0.300660	0.534490	0.340880
C5061	C506	0.261910	0.497150	0.342090
C5071	C507	0.240190	0.482660	0.376130
C5081	C508	0.257500	0.506330	0.408100
C5091	C509	0.296120	0.543790	0.405030
C5101	C510	0.316000	0.572630	0.436320
C5111	C511	0.294820	0.568580	0.472040
C5121	C512	0.316690	0.598480	0.499330
C5131	C513	0.359260	0.631100	0.490110
C5141	C514	0.377530	0.634290	0.454010
C5151	C515	0.197010	0.442540	0.378430
C5161	C516	0.293700	0.595310	0.538850
C5171	C517	0.263230	0.654750	0.366080
C5181	C518	0.227880	0.694510	0.364920
C5191	C519	0.251600	0.739530	0.369230
C5201	C520	0.310300	0.743940	0.373220
C5211	C521	0.344070	0.702970	0.373280
C5221	C522	0.214200	0.784040	0.370430
H2531	H253	0.320000	0.546800	0.320300
H2541	H254	0.243800	0.483900	0.323200
H2551	H255	0.264100	0.547500	0.477600
H2561	H256	0.243100	0.497000	0.431700
H2571	H257	0.375100	0.651900	0.508000
H2581	H258	0.405800	0.653100	0.444100
H2591	H259	0.248500	0.621500	0.367800
H2601	H260	0.189800	0.688200	0.365700
H2611	H261	0.330800	0.771100	0.375600
O1751	O175	0.191000	0.916870	0.850090
O1761	O176	0.168360	0.936950	0.907790
O1771	O177	0.249670	0.070280	0.044500
O1781	O178	0.321570	0.119330	0.062010
O1791	O179	0.165690	0.281700	0.855110
O1801	O180	0.234300	0.320190	0.885130
N881	N88	0.317940	0.057330	0.871800
N891	N89	0.356410	0.105550	0.927350
N901	N90	0.320200	0.158810	0.870300
C5231	C523	0.300660	0.034490	0.840880
C5241	C524	0.261910	0.997150	0.842090
C5251	C525	0.240190	0.982660	0.876130
C5261	C526	0.257500	0.006330	0.908100
C5271	C527	0.296120	0.043790	0.905030
C5281	C528	0.316000	0.072630	0.936320
C5291	C529	0.294820	0.068580	0.972040
C5301	C530	0.316690	0.098480	0.999330
C5311	C531	0.359260	0.131100	0.990110
C5321	C532	0.377530	0.134290	0.954010
C5331	C533	0.197010	0.942540	0.878430
C5341	C534	0.293700	0.095310	0.038850
C5351	C535	0.263230	0.154750	0.866080
C5361	C536	0.227880	0.194510	0.864920
C5371	C537	0.251600	0.239530	0.869230
C5381	C538	0.310300	0.243940	0.873220
C5391	C539	0.344070	0.202970	0.873280
C5401	C540	0.214200	0.284040	0.870430
H2621	H262	0.320000	0.046800	0.820300
H2631	H263	0.243800	0.983900	0.823200
H2641	H264	0.264100	0.047500	0.977600
H2651	H265	0.243100	0.997000	0.931700
H2661	H266	0.375100	0.151900	0.008000
H2671	H267	0.405800	0.153100	0.944100
H2681	H268	0.248500	0.121500	0.867800
H2691	H269	0.189800	0.188200	0.865700
H2701	H270	0.330800	0.271100	0.875600
O1811	O181	0.691000	0.416870	0.850090
O1821	O182	0.668360	0.436950	0.907790
O1831	O183	0.749670	0.570280	0.044500
O1841	O184	0.821570	0.619330	0.062010
O1851	O185	0.665690	0.781700	0.855110
O1861	O186	0.734300	0.820190	0.885130
N911	N91	0.817940	0.557330	0.871800
N921	N92	0.856410	0.605550	0.927350
N931	N93	0.820200	0.658810	0.870300
C5411	C541	0.800660	0.534490	0.840880
C5421	C542	0.761910	0.497150	0.842090
C5431	C543	0.740190	0.482660	0.876130
C5441	C544	0.757500	0.506330	0.908100
C5451	C545	0.796120	0.543790	0.905030
C5461	C546	0.816000	0.572630	0.936320
C5471	C547	0.794820	0.568580	0.972040
C5481	C548	0.816690	0.598480	0.999330
C5491	C549	0.859260	0.631100	0.990110
C5501	C550	0.877530	0.634290	0.954010
C5511	C551	0.697010	0.442540	0.878430
C5521	C552	0.793700	0.595310	0.038850
C5531	C553	0.763230	0.654750	0.866080
C5541	C554	0.727880	0.694510	0.864920
C5551	C555	0.751600	0.739530	0.869230
C5561	C556	0.810300	0.743940	0.873220
C5571	C557	0.844070	0.702970	0.873280
C5581	C558	0.714200	0.784040	0.870430
H2711	H271	0.820000	0.546800	0.820300
H2721	H272	0.743800	0.483900	0.823200
H2731	H273	0.764100	0.547500	0.977600
H2741	H274	0.743100	0.497000	0.931700
H2751	H275	0.875100	0.651900	0.008000
H2761	H276	0.905800	0.653100	0.944100
H2771	H277	0.748500	0.621500	0.867800
H2781	H278	0.689800	0.688200	0.865700
H2791	H279	0.830800	0.771100	0.875600
O1871	O187	0.691000	0.916870	0.350090
O1881	O188	0.668360	0.936950	0.407790
O1891	O189	0.749670	0.070280	0.544500
O1901	O190	0.821570	0.119330	0.562010
O1911	O191	0.665690	0.281700	0.355110
O1921	O192	0.734300	0.320190	0.385130
N941	N94	0.817940	0.057330	0.371800
N951	N95	0.856410	0.105550	0.427350
N961	N96	0.820200	0.158810	0.370300
C5591	C559	0.800660	0.034490	0.340880
C5601	C560	0.761910	0.997150	0.342090
C5611	C561	0.740190	0.982660	0.376130
C5621	C562	0.757500	0.006330	0.408100
C5631	C563	0.796120	0.043790	0.405030
C5641	C564	0.816000	0.072630	0.436320
C5651	C565	0.794820	0.068580	0.472040
C5661	C566	0.816690	0.098480	0.499330
C5671	C567	0.859260	0.131100	0.490110
C5681	C568	0.877530	0.134290	0.454010
C5691	C569	0.697010	0.942540	0.378430
C5701	C570	0.793700	0.095310	0.538850
C5711	C571	0.763230	0.154750	0.366080
C5721	C572	0.727880	0.194510	0.364920
C5731	C573	0.751600	0.239530	0.369230
C5741	C574	0.810300	0.243940	0.373220
C5751	C575	0.844070	0.202970	0.373280
C5761	C576	0.714200	0.284040	0.370430
H2801	H280	0.820000	0.046800	0.320300
H2811	H281	0.743800	0.983900	0.323200
H2821	H282	0.764100	0.047500	0.477600
H2831	H283	0.743100	0.997000	0.431700
H2841	H284	0.875100	0.151900	0.508000
H2851	H285	0.905800	0.153100	0.444100
H2861	H286	0.748500	0.121500	0.367800
H2871	H287	0.689800	0.188200	0.365700
H2881	H288	0.830800	0.271100	0.375600
Pr11	Pr1	0.898380	0.125000	0.125000
Pr21	Pr2	0.898380	0.625000	0.625000
Pr31	Pr3	0.398380	0.125000	0.625000
Pr41	Pr4	0.851620	0.625000	0.125000
Pr51	Pr5	0.351620	0.625000	0.625000
Pr61	Pr6	0.851620	0.125000	0.625000
Pr71	Pr7	0.351620	0.125000	0.125000
Pr81	Pr8	0.398380	0.625000	0.125000
Pr91	Pr9	0.101620	0.875000	0.875000
Pr101	Pr10	0.101620	0.375000	0.375000
Pr111	Pr11	0.601620	0.875000	0.375000
Pr121	Pr12	0.148380	0.375000	0.875000
Pr131	Pr13	0.648380	0.375000	0.375000
Pr141	Pr14	0.148380	0.875000	0.375000
Pr151	Pr15	0.648380	0.875000	0.875000
Pr161	Pr16	0.601620	0.375000	0.875000
Co11	Co1	0.625000	0.357400	0.125000
Co21	Co2	0.625000	0.857400	0.625000
Co31	Co3	0.125000	0.392600	0.125000
Co41	Co4	0.125000	0.892600	0.625000
Co51	Co5	0.625000	0.392600	0.625000
Co61	Co6	0.125000	0.357400	0.625000
Co71	Co7	0.125000	0.857400	0.125000
Co81	Co8	0.625000	0.892600	0.125000
Co91	Co9	0.375000	0.642600	0.875000
Co101	Co10	0.375000	0.142600	0.375000
Co111	Co11	0.875000	0.607400	0.875000
Co121	Co12	0.875000	0.107400	0.375000
Co131	Co13	0.875000	0.642600	0.375000
Co141	Co14	0.875000	0.142600	0.875000
Co151	Co15	0.375000	0.607400	0.375000
Co161	Co16	0.375000	0.107400	0.875000
