data_ZOZKAC_clean_PM
_symmetry_space_group_name_H-M	'P1'
_cell_length_a	13.069600
_cell_length_b	13.069600
_cell_length_c	11.286700
_cell_angle_alpha	90.000000
_cell_angle_beta	90.000000
_cell_angle_gamma	90.000000
_symmetry_Int_Tables_number 1

loop_
_symmetry_equiv_pos_as_xyz
'x,y,z'

loop_
_atom_site_label
_atom_site_type_symbol
_atom_site_fract_x
_atom_site_fract_y
_atom_site_fract_z
Mn11	Mn1	0.743030	0.989630	0.104740
Mn21	Mn2	0.749940	0.219270	0.957900
O11	O1	0.760100	0.056500	0.919300
O21	O2	0.872400	0.135400	0.807300
O31	O3	0.087500	0.772100	0.530900
O41	O4	0.140300	0.903700	0.638400
O51	O5	0.643000	0.759200	0.122200
O61	O6	0.622800	0.904900	0.025600
O71	O7	0.321800	0.750000	0.616100
O81	O8	0.367600	0.905200	0.678800
C11	C1	0.827600	0.055200	0.838700
C21	C2	0.072500	0.841100	0.609100
C31	C3	0.602600	0.813400	0.042900
C41	C4	0.364900	0.810200	0.687400
C51	C5	0.851900	0.954600	0.781600
C61	C6	0.944600	0.943300	0.720800
H11	H1	0.989000	0.998600	0.714400
C71	C7	0.971200	0.849200	0.669600
C81	C8	0.905400	0.768000	0.679600
H21	H2	0.922600	0.705100	0.646400
C91	C9	0.812200	0.779500	0.739800
H31	H3	0.767300	0.724600	0.745100
C101	C10	0.786600	0.872200	0.791300
H41	H4	0.725400	0.878800	0.832500
C111	C11	0.525200	0.760800	0.963300
C121	C12	0.482500	0.811100	0.866600
H51	H5	0.499300	0.879000	0.851300
C131	C13	0.414400	0.759000	0.792500
C141	C14	0.388800	0.658200	0.818400
H61	H6	0.342800	0.623800	0.769800
C151	C15	0.429900	0.608600	0.913900
H71	H7	0.411700	0.541200	0.930000
C161	C16	0.499600	0.659600	0.987200
H81	H8	0.528600	0.626000	0.051600
Mn31	Mn3	0.256970	0.010370	0.604740
Mn41	Mn4	0.250060	0.780730	0.457900
O91	O9	0.239900	0.943500	0.419300
O101	O10	0.127600	0.864600	0.307300
O111	O11	0.912500	0.227900	0.030900
O121	O12	0.859700	0.096300	0.138400
O131	O13	0.357000	0.240800	0.622200
O141	O14	0.377200	0.095100	0.525600
O151	O15	0.678200	0.250000	0.116100
O161	O16	0.632400	0.094800	0.178800
C171	C17	0.172400	0.944800	0.338700
C181	C18	0.927500	0.158900	0.109100
C191	C19	0.397400	0.186600	0.542900
C201	C20	0.635100	0.189800	0.187400
C211	C21	0.148100	0.045400	0.281600
C221	C22	0.055400	0.056700	0.220800
H91	H9	0.011000	0.001400	0.214400
C231	C23	0.028800	0.150800	0.169600
C241	C24	0.094600	0.232000	0.179600
H101	H10	0.077400	0.294900	0.146400
C251	C25	0.187800	0.220500	0.239800
H111	H11	0.232700	0.275400	0.245100
C261	C26	0.213400	0.127800	0.291300
H121	H12	0.274600	0.121200	0.332500
C271	C27	0.474800	0.239200	0.463300
C281	C28	0.517500	0.188900	0.366600
H131	H13	0.500700	0.121000	0.351300
C291	C29	0.585600	0.241000	0.292500
C301	C30	0.611200	0.341800	0.318400
H141	H14	0.657200	0.376200	0.269800
C311	C31	0.570100	0.391400	0.413900
H151	H15	0.588300	0.458800	0.430000
C321	C32	0.500400	0.340400	0.487200
H161	H16	0.471400	0.374000	0.551600
Mn51	Mn5	0.010370	0.743030	0.354740
Mn61	Mn6	0.780730	0.749940	0.207900
O171	O17	0.943500	0.760100	0.169300
O181	O18	0.864600	0.872400	0.057300
O191	O19	0.227900	0.087500	0.780900
O201	O20	0.096300	0.140300	0.888400
O211	O21	0.240800	0.643000	0.372200
O221	O22	0.095100	0.622800	0.275600
O231	O23	0.250000	0.321800	0.866100
O241	O24	0.094800	0.367600	0.928800
C331	C33	0.944800	0.827600	0.088700
C341	C34	0.158900	0.072500	0.859100
C351	C35	0.186600	0.602600	0.292900
C361	C36	0.189800	0.364900	0.937400
C371	C37	0.045400	0.851900	0.031600
C381	C38	0.056700	0.944600	0.970800
H171	H17	0.001400	0.989000	0.964400
C391	C39	0.150800	0.971200	0.919600
C401	C40	0.232000	0.905400	0.929600
H181	H18	0.294900	0.922600	0.896400
C411	C41	0.220500	0.812200	0.989800
H191	H19	0.275400	0.767300	0.995100
C421	C42	0.127800	0.786600	0.041300
H201	H20	0.121200	0.725400	0.082500
C431	C43	0.239200	0.525200	0.213300
C441	C44	0.188900	0.482500	0.116600
H211	H21	0.121000	0.499300	0.101300
C451	C45	0.241000	0.414400	0.042500
C461	C46	0.341800	0.388800	0.068400
H221	H22	0.376200	0.342800	0.019800
C471	C47	0.391400	0.429900	0.163900
H231	H23	0.458800	0.411700	0.180000
C481	C48	0.340400	0.499600	0.237200
H241	H24	0.374000	0.528600	0.301600
Mn71	Mn7	0.989630	0.256970	0.854740
Mn81	Mn8	0.219270	0.250060	0.707900
O251	O25	0.056500	0.239900	0.669300
O261	O26	0.135400	0.127600	0.557300
O271	O27	0.772100	0.912500	0.280900
O281	O28	0.903700	0.859700	0.388400
O291	O29	0.759200	0.357000	0.872200
O301	O30	0.904900	0.377200	0.775600
O311	O31	0.750000	0.678200	0.366100
O321	O32	0.905200	0.632400	0.428800
C491	C49	0.055200	0.172400	0.588700
C501	C50	0.841100	0.927500	0.359100
C511	C51	0.813400	0.397400	0.792900
C521	C52	0.810200	0.635100	0.437400
C531	C53	0.954600	0.148100	0.531600
C541	C54	0.943300	0.055400	0.470800
H251	H25	0.998600	0.011000	0.464400
C551	C55	0.849200	0.028800	0.419600
C561	C56	0.768000	0.094600	0.429600
H261	H26	0.705100	0.077400	0.396400
C571	C57	0.779500	0.187800	0.489800
H271	H27	0.724600	0.232700	0.495100
C581	C58	0.872200	0.213400	0.541300
H281	H28	0.878800	0.274600	0.582500
C591	C59	0.760800	0.474800	0.713300
C601	C60	0.811100	0.517500	0.616600
H291	H29	0.879000	0.500700	0.601300
C611	C61	0.759000	0.585600	0.542500
C621	C62	0.658200	0.611200	0.568400
H301	H30	0.623800	0.657200	0.519800
C631	C63	0.608600	0.570100	0.663900
H311	H31	0.541200	0.588300	0.680000
C641	C64	0.659600	0.500400	0.737200
H321	H32	0.626000	0.471400	0.801600
