data_ZUBFIN_clean_PM
_symmetry_space_group_name_H-M	'P1'
_cell_length_a	11.432600
_cell_length_b	40.445700
_cell_length_c	63.899800
_cell_angle_alpha	90.000000
_cell_angle_beta	90.000000
_cell_angle_gamma	90.000000
_symmetry_Int_Tables_number 1

loop_
_symmetry_equiv_pos_as_xyz
'x,y,z'

loop_
_atom_site_label
_atom_site_type_symbol
_atom_site_fract_x
_atom_site_fract_y
_atom_site_fract_z
Zn11	Zn1	0.456420	0.540020	0.531450
O11	O1	0.191300	0.316840	0.765590
O21	O2	0.024400	0.306330	0.750310
O31	O3	0.956100	0.346380	0.676900
O41	O4	0.072500	0.384800	0.664460
O51	O5	0.509900	0.543200	0.576620
O61	O6	0.496400	0.577490	0.549540
N11	N1	0.878100	0.413020	0.632760
N21	N2	0.892700	0.442790	0.604040
N31	N3	0.190000	0.480350	0.555100
N41	N4	0.346900	0.504950	0.542820
N51	N5	0.778700	0.491900	0.538750
N61	N6	0.612700	0.515410	0.529730
C11	C1	0.125800	0.318560	0.750440
C21	C2	0.164700	0.336700	0.730620
C31	C3	0.275400	0.350210	0.730340
H11	H1	0.324900	0.347800	0.742200
C41	C4	0.315700	0.367540	0.712770
C51	C5	0.242700	0.371230	0.695570
H21	H2	0.269300	0.382900	0.683600
C61	C6	0.129900	0.357780	0.695970
C71	C7	0.090800	0.340590	0.713410
H31	H3	0.014200	0.331500	0.713600
C81	C8	0.049600	0.363400	0.677750
C91	C9	0.797200	0.437100	0.633480
H41	H4	0.745000	0.440800	0.644800
C101	C10	0.800800	0.455400	0.615680
H51	H5	0.750600	0.473200	0.612000
C111	C11	0.934700	0.416780	0.614860
H61	H6	0.996800	0.403000	0.610200
C121	C12	0.926000	0.455080	0.584200
C131	C13	0.837900	0.464700	0.570630
H71	H7	0.758000	0.460900	0.574000
C141	C14	0.869200	0.480080	0.552030
C151	C15	0.984100	0.484810	0.546450
H81	H8	0.004000	0.495000	0.533500
C161	C16	0.069900	0.474310	0.560180
C171	C17	0.043500	0.459480	0.579290
H91	H9	0.103500	0.452600	0.588600
C181	C18	0.285100	0.460820	0.560980
H101	H10	0.283200	0.440900	0.568800
C191	C19	0.380400	0.476190	0.553200
H111	H11	0.458600	0.468500	0.554600
C201	C20	0.231700	0.506540	0.544210
H121	H12	0.184900	0.523600	0.538400
C211	C21	0.778800	0.493740	0.517070
H131	H13	0.838500	0.486400	0.507800
C221	C22	0.676500	0.505140	0.545590
H141	H14	0.654100	0.506800	0.559900
C231	C23	0.676100	0.508240	0.511810
H151	H15	0.651300	0.512800	0.497900
C241	C24	0.523100	0.570750	0.568390
C251	C25	0.576200	0.598610	0.580680
C261	C26	0.578700	0.598350	0.602270
H161	H16	0.548600	0.579800	0.609600
Zn21	Zn2	0.456420	0.040020	0.031450
O71	O7	0.191300	0.816840	0.265590
O81	O8	0.024400	0.806330	0.250310
O91	O9	0.956100	0.846380	0.176900
O101	O10	0.072500	0.884800	0.164460
O111	O11	0.509900	0.043200	0.076620
O121	O12	0.496400	0.077490	0.049540
N71	N7	0.878100	0.913020	0.132760
N81	N8	0.892700	0.942790	0.104040
N91	N9	0.190000	0.980350	0.055100
N101	N10	0.346900	0.004950	0.042820
N111	N11	0.778700	0.991900	0.038750
N121	N12	0.612700	0.015410	0.029730
C271	C27	0.125800	0.818560	0.250440
C281	C28	0.164700	0.836700	0.230620
C291	C29	0.275400	0.850210	0.230340
H171	H17	0.324900	0.847800	0.242200
C301	C30	0.315700	0.867540	0.212770
C311	C31	0.242700	0.871230	0.195570
H181	H18	0.269300	0.882900	0.183600
C321	C32	0.129900	0.857780	0.195970
C331	C33	0.090800	0.840590	0.213410
H191	H19	0.014200	0.831500	0.213600
C341	C34	0.049600	0.863400	0.177750
C351	C35	0.797200	0.937100	0.133480
H201	H20	0.745000	0.940800	0.144800
C361	C36	0.800800	0.955400	0.115680
H211	H21	0.750600	0.973200	0.112000
C371	C37	0.934700	0.916780	0.114860
H221	H22	0.996800	0.903000	0.110200
C381	C38	0.926000	0.955080	0.084200
C391	C39	0.837900	0.964700	0.070630
H231	H23	0.758000	0.960900	0.074000
C401	C40	0.869200	0.980080	0.052030
C411	C41	0.984100	0.984810	0.046450
H241	H24	0.004000	0.995000	0.033500
C421	C42	0.069900	0.974310	0.060180
C431	C43	0.043500	0.959480	0.079290
H251	H25	0.103500	0.952600	0.088600
C441	C44	0.285100	0.960820	0.060980
H261	H26	0.283200	0.940900	0.068800
C451	C45	0.380400	0.976190	0.053200
H271	H27	0.458600	0.968500	0.054600
C461	C46	0.231700	0.006540	0.044210
H281	H28	0.184900	0.023600	0.038400
C471	C47	0.778800	0.993740	0.017070
H291	H29	0.838500	0.986400	0.007800
C481	C48	0.676500	0.005140	0.045590
H301	H30	0.654100	0.006800	0.059900
C491	C49	0.676100	0.008240	0.011810
H311	H31	0.651300	0.012800	0.997900
C501	C50	0.523100	0.070750	0.068390
C511	C51	0.576200	0.098610	0.080680
C521	C52	0.578700	0.098350	0.102270
H321	H32	0.548600	0.079800	0.109600
Zn31	Zn3	0.956420	0.540020	0.031450
O131	O13	0.691300	0.316840	0.265590
O141	O14	0.524400	0.306330	0.250310
O151	O15	0.456100	0.346380	0.176900
O161	O16	0.572500	0.384800	0.164460
O171	O17	0.009900	0.543200	0.076620
O181	O18	0.996400	0.577490	0.049540
N131	N13	0.378100	0.413020	0.132760
N141	N14	0.392700	0.442790	0.104040
N151	N15	0.690000	0.480350	0.055100
N161	N16	0.846900	0.504950	0.042820
N171	N17	0.278700	0.491900	0.038750
N181	N18	0.112700	0.515410	0.029730
C531	C53	0.625800	0.318560	0.250440
C541	C54	0.664700	0.336700	0.230620
C551	C55	0.775400	0.350210	0.230340
H331	H33	0.824900	0.347800	0.242200
C561	C56	0.815700	0.367540	0.212770
C571	C57	0.742700	0.371230	0.195570
H341	H34	0.769300	0.382900	0.183600
C581	C58	0.629900	0.357780	0.195970
C591	C59	0.590800	0.340590	0.213410
H351	H35	0.514200	0.331500	0.213600
C601	C60	0.549600	0.363400	0.177750
C611	C61	0.297200	0.437100	0.133480
H361	H36	0.245000	0.440800	0.144800
C621	C62	0.300800	0.455400	0.115680
H371	H37	0.250600	0.473200	0.112000
C631	C63	0.434700	0.416780	0.114860
H381	H38	0.496800	0.403000	0.110200
C641	C64	0.426000	0.455080	0.084200
C651	C65	0.337900	0.464700	0.070630
H391	H39	0.258000	0.460900	0.074000
C661	C66	0.369200	0.480080	0.052030
C671	C67	0.484100	0.484810	0.046450
H401	H40	0.504000	0.495000	0.033500
C681	C68	0.569900	0.474310	0.060180
C691	C69	0.543500	0.459480	0.079290
H411	H41	0.603500	0.452600	0.088600
C701	C70	0.785100	0.460820	0.060980
H421	H42	0.783200	0.440900	0.068800
C711	C71	0.880400	0.476190	0.053200
H431	H43	0.958600	0.468500	0.054600
C721	C72	0.731700	0.506540	0.044210
H441	H44	0.684900	0.523600	0.038400
C731	C73	0.278800	0.493740	0.017070
H451	H45	0.338500	0.486400	0.007800
C741	C74	0.176500	0.505140	0.045590
H461	H46	0.154100	0.506800	0.059900
C751	C75	0.176100	0.508240	0.011810
H471	H47	0.151300	0.512800	0.997900
C761	C76	0.023100	0.570750	0.068390
C771	C77	0.076200	0.598610	0.080680
C781	C78	0.078700	0.598350	0.102270
H481	H48	0.048600	0.579800	0.109600
Zn41	Zn4	0.956420	0.040020	0.531450
O191	O19	0.691300	0.816840	0.765590
O201	O20	0.524400	0.806330	0.750310
O211	O21	0.456100	0.846380	0.676900
O221	O22	0.572500	0.884800	0.664460
O231	O23	0.009900	0.043200	0.576620
O241	O24	0.996400	0.077490	0.549540
N191	N19	0.378100	0.913020	0.632760
N201	N20	0.392700	0.942790	0.604040
N211	N21	0.690000	0.980350	0.555100
N221	N22	0.846900	0.004950	0.542820
N231	N23	0.278700	0.991900	0.538750
N241	N24	0.112700	0.015410	0.529730
C791	C79	0.625800	0.818560	0.750440
C801	C80	0.664700	0.836700	0.730620
C811	C81	0.775400	0.850210	0.730340
H491	H49	0.824900	0.847800	0.742200
C821	C82	0.815700	0.867540	0.712770
C831	C83	0.742700	0.871230	0.695570
H501	H50	0.769300	0.882900	0.683600
C841	C84	0.629900	0.857780	0.695970
C851	C85	0.590800	0.840590	0.713410
H511	H51	0.514200	0.831500	0.713600
C861	C86	0.549600	0.863400	0.677750
C871	C87	0.297200	0.937100	0.633480
H521	H52	0.245000	0.940800	0.644800
C881	C88	0.300800	0.955400	0.615680
H531	H53	0.250600	0.973200	0.612000
C891	C89	0.434700	0.916780	0.614860
H541	H54	0.496800	0.903000	0.610200
C901	C90	0.426000	0.955080	0.584200
C911	C91	0.337900	0.964700	0.570630
H551	H55	0.258000	0.960900	0.574000
C921	C92	0.369200	0.980080	0.552030
C931	C93	0.484100	0.984810	0.546450
H561	H56	0.504000	0.995000	0.533500
C941	C94	0.569900	0.974310	0.560180
C951	C95	0.543500	0.959480	0.579290
H571	H57	0.603500	0.952600	0.588600
C961	C96	0.785100	0.960820	0.560980
H581	H58	0.783200	0.940900	0.568800
C971	C97	0.880400	0.976190	0.553200
H591	H59	0.958600	0.968500	0.554600
C981	C98	0.731700	0.006540	0.544210
H601	H60	0.684900	0.023600	0.538400
C991	C99	0.278800	0.993740	0.517070
H611	H61	0.338500	0.986400	0.507800
C1001	C100	0.176500	0.005140	0.545590
H621	H62	0.154100	0.006800	0.559900
C1011	C101	0.176100	0.008240	0.511810
H631	H63	0.151300	0.012800	0.497900
C1021	C102	0.023100	0.070750	0.568390
C1031	C103	0.076200	0.098610	0.580680
C1041	C104	0.078700	0.098350	0.602270
H641	H64	0.048600	0.079800	0.609600
Zn51	Zn5	0.293580	0.209980	0.531450
O251	O25	0.558700	0.433160	0.765590
O261	O26	0.725600	0.443670	0.750310
O271	O27	0.793900	0.403620	0.676900
O281	O28	0.677500	0.365200	0.664460
O291	O29	0.240100	0.206800	0.576620
O301	O30	0.253600	0.172510	0.549540
N251	N25	0.871900	0.336980	0.632760
N261	N26	0.857300	0.307210	0.604040
N271	N27	0.560000	0.269650	0.555100
N281	N28	0.403100	0.245050	0.542820
N291	N29	0.971300	0.258100	0.538750
N301	N30	0.137300	0.234590	0.529730
C1051	C105	0.624200	0.431440	0.750440
C1061	C106	0.585300	0.413300	0.730620
C1071	C107	0.474600	0.399790	0.730340
H651	H65	0.425100	0.402200	0.742200
C1081	C108	0.434300	0.382460	0.712770
C1091	C109	0.507300	0.378770	0.695570
H661	H66	0.480700	0.367100	0.683600
C1101	C110	0.620100	0.392220	0.695970
C1111	C111	0.659200	0.409410	0.713410
H671	H67	0.735800	0.418500	0.713600
C1121	C112	0.700400	0.386600	0.677750
C1131	C113	0.952800	0.312900	0.633480
H681	H68	0.005000	0.309200	0.644800
C1141	C114	0.949200	0.294600	0.615680
H691	H69	0.999400	0.276800	0.612000
C1151	C115	0.815300	0.333220	0.614860
H701	H70	0.753200	0.347000	0.610200
C1161	C116	0.824000	0.294920	0.584200
C1171	C117	0.912100	0.285300	0.570630
H711	H71	0.992000	0.289100	0.574000
C1181	C118	0.880800	0.269920	0.552030
C1191	C119	0.765900	0.265190	0.546450
H721	H72	0.746000	0.255000	0.533500
C1201	C120	0.680100	0.275690	0.560180
C1211	C121	0.706500	0.290520	0.579290
H731	H73	0.646500	0.297400	0.588600
C1221	C122	0.464900	0.289180	0.560980
H741	H74	0.466800	0.309100	0.568800
C1231	C123	0.369600	0.273810	0.553200
H751	H75	0.291400	0.281500	0.554600
C1241	C124	0.518300	0.243460	0.544210
H761	H76	0.565100	0.226400	0.538400
C1251	C125	0.971200	0.256260	0.517070
H771	H77	0.911500	0.263600	0.507800
C1261	C126	0.073500	0.244860	0.545590
H781	H78	0.095900	0.243200	0.559900
C1271	C127	0.073900	0.241760	0.511810
H791	H79	0.098700	0.237200	0.497900
C1281	C128	0.226900	0.179250	0.568390
C1291	C129	0.173800	0.151390	0.580680
C1301	C130	0.171300	0.151650	0.602270
H801	H80	0.201400	0.170200	0.609600
Zn61	Zn6	0.293580	0.709980	0.031450
O311	O31	0.558700	0.933160	0.265590
O321	O32	0.725600	0.943670	0.250310
O331	O33	0.793900	0.903620	0.176900
O341	O34	0.677500	0.865200	0.164460
O351	O35	0.240100	0.706800	0.076620
O361	O36	0.253600	0.672510	0.049540
N311	N31	0.871900	0.836980	0.132760
N321	N32	0.857300	0.807210	0.104040
N331	N33	0.560000	0.769650	0.055100
N341	N34	0.403100	0.745050	0.042820
N351	N35	0.971300	0.758100	0.038750
N361	N36	0.137300	0.734590	0.029730
C1311	C131	0.624200	0.931440	0.250440
C1321	C132	0.585300	0.913300	0.230620
C1331	C133	0.474600	0.899790	0.230340
H811	H81	0.425100	0.902200	0.242200
C1341	C134	0.434300	0.882460	0.212770
C1351	C135	0.507300	0.878770	0.195570
H821	H82	0.480700	0.867100	0.183600
C1361	C136	0.620100	0.892220	0.195970
C1371	C137	0.659200	0.909410	0.213410
H831	H83	0.735800	0.918500	0.213600
C1381	C138	0.700400	0.886600	0.177750
C1391	C139	0.952800	0.812900	0.133480
H841	H84	0.005000	0.809200	0.144800
C1401	C140	0.949200	0.794600	0.115680
H851	H85	0.999400	0.776800	0.112000
C1411	C141	0.815300	0.833220	0.114860
H861	H86	0.753200	0.847000	0.110200
C1421	C142	0.824000	0.794920	0.084200
C1431	C143	0.912100	0.785300	0.070630
H871	H87	0.992000	0.789100	0.074000
C1441	C144	0.880800	0.769920	0.052030
C1451	C145	0.765900	0.765190	0.046450
H881	H88	0.746000	0.755000	0.033500
C1461	C146	0.680100	0.775690	0.060180
C1471	C147	0.706500	0.790520	0.079290
H891	H89	0.646500	0.797400	0.088600
C1481	C148	0.464900	0.789180	0.060980
H901	H90	0.466800	0.809100	0.068800
C1491	C149	0.369600	0.773810	0.053200
H911	H91	0.291400	0.781500	0.054600
C1501	C150	0.518300	0.743460	0.044210
H921	H92	0.565100	0.726400	0.038400
C1511	C151	0.971200	0.756260	0.017070
H931	H93	0.911500	0.763600	0.007800
C1521	C152	0.073500	0.744860	0.045590
H941	H94	0.095900	0.743200	0.059900
C1531	C153	0.073900	0.741760	0.011810
H951	H95	0.098700	0.737200	0.997900
C1541	C154	0.226900	0.679250	0.068390
C1551	C155	0.173800	0.651390	0.080680
C1561	C156	0.171300	0.651650	0.102270
H961	H96	0.201400	0.670200	0.109600
Zn71	Zn7	0.793580	0.209980	0.031450
O371	O37	0.058700	0.433160	0.265590
O381	O38	0.225600	0.443670	0.250310
O391	O39	0.293900	0.403620	0.176900
O401	O40	0.177500	0.365200	0.164460
O411	O41	0.740100	0.206800	0.076620
O421	O42	0.753600	0.172510	0.049540
N371	N37	0.371900	0.336980	0.132760
N381	N38	0.357300	0.307210	0.104040
N391	N39	0.060000	0.269650	0.055100
N401	N40	0.903100	0.245050	0.042820
N411	N41	0.471300	0.258100	0.038750
N421	N42	0.637300	0.234590	0.029730
C1571	C157	0.124200	0.431440	0.250440
C1581	C158	0.085300	0.413300	0.230620
C1591	C159	0.974600	0.399790	0.230340
H971	H97	0.925100	0.402200	0.242200
C1601	C160	0.934300	0.382460	0.212770
C1611	C161	0.007300	0.378770	0.195570
H981	H98	0.980700	0.367100	0.183600
C1621	C162	0.120100	0.392220	0.195970
C1631	C163	0.159200	0.409410	0.213410
H991	H99	0.235800	0.418500	0.213600
C1641	C164	0.200400	0.386600	0.177750
C1651	C165	0.452800	0.312900	0.133480
H1001	H100	0.505000	0.309200	0.144800
C1661	C166	0.449200	0.294600	0.115680
H1011	H101	0.499400	0.276800	0.112000
C1671	C167	0.315300	0.333220	0.114860
H1021	H102	0.253200	0.347000	0.110200
C1681	C168	0.324000	0.294920	0.084200
C1691	C169	0.412100	0.285300	0.070630
H1031	H103	0.492000	0.289100	0.074000
C1701	C170	0.380800	0.269920	0.052030
C1711	C171	0.265900	0.265190	0.046450
H1041	H104	0.246000	0.255000	0.033500
C1721	C172	0.180100	0.275690	0.060180
C1731	C173	0.206500	0.290520	0.079290
H1051	H105	0.146500	0.297400	0.088600
C1741	C174	0.964900	0.289180	0.060980
H1061	H106	0.966800	0.309100	0.068800
C1751	C175	0.869600	0.273810	0.053200
H1071	H107	0.791400	0.281500	0.054600
C1761	C176	0.018300	0.243460	0.044210
H1081	H108	0.065100	0.226400	0.038400
C1771	C177	0.471200	0.256260	0.017070
H1091	H109	0.411500	0.263600	0.007800
C1781	C178	0.573500	0.244860	0.045590
H1101	H110	0.595900	0.243200	0.059900
C1791	C179	0.573900	0.241760	0.011810
H1111	H111	0.598700	0.237200	0.997900
C1801	C180	0.726900	0.179250	0.068390
C1811	C181	0.673800	0.151390	0.080680
C1821	C182	0.671300	0.151650	0.102270
H1121	H112	0.701400	0.170200	0.109600
Zn81	Zn8	0.793580	0.709980	0.531450
O431	O43	0.058700	0.933160	0.765590
O441	O44	0.225600	0.943670	0.750310
O451	O45	0.293900	0.903620	0.676900
O461	O46	0.177500	0.865200	0.664460
O471	O47	0.740100	0.706800	0.576620
O481	O48	0.753600	0.672510	0.549540
N431	N43	0.371900	0.836980	0.632760
N441	N44	0.357300	0.807210	0.604040
N451	N45	0.060000	0.769650	0.555100
N461	N46	0.903100	0.745050	0.542820
N471	N47	0.471300	0.758100	0.538750
N481	N48	0.637300	0.734590	0.529730
C1831	C183	0.124200	0.931440	0.750440
C1841	C184	0.085300	0.913300	0.730620
C1851	C185	0.974600	0.899790	0.730340
H1131	H113	0.925100	0.902200	0.742200
C1861	C186	0.934300	0.882460	0.712770
C1871	C187	0.007300	0.878770	0.695570
H1141	H114	0.980700	0.867100	0.683600
C1881	C188	0.120100	0.892220	0.695970
C1891	C189	0.159200	0.909410	0.713410
H1151	H115	0.235800	0.918500	0.713600
C1901	C190	0.200400	0.886600	0.677750
C1911	C191	0.452800	0.812900	0.633480
H1161	H116	0.505000	0.809200	0.644800
C1921	C192	0.449200	0.794600	0.615680
H1171	H117	0.499400	0.776800	0.612000
C1931	C193	0.315300	0.833220	0.614860
H1181	H118	0.253200	0.847000	0.610200
C1941	C194	0.324000	0.794920	0.584200
C1951	C195	0.412100	0.785300	0.570630
H1191	H119	0.492000	0.789100	0.574000
C1961	C196	0.380800	0.769920	0.552030
C1971	C197	0.265900	0.765190	0.546450
H1201	H120	0.246000	0.755000	0.533500
C1981	C198	0.180100	0.775690	0.560180
C1991	C199	0.206500	0.790520	0.579290
H1211	H121	0.146500	0.797400	0.588600
C2001	C200	0.964900	0.789180	0.560980
H1221	H122	0.966800	0.809100	0.568800
C2011	C201	0.869600	0.773810	0.553200
H1231	H123	0.791400	0.781500	0.554600
C2021	C202	0.018300	0.743460	0.544210
H1241	H124	0.065100	0.726400	0.538400
C2031	C203	0.471200	0.756260	0.517070
H1251	H125	0.411500	0.763600	0.507800
C2041	C204	0.573500	0.744860	0.545590
H1261	H126	0.595900	0.743200	0.559900
C2051	C205	0.573900	0.741760	0.511810
H1271	H127	0.598700	0.737200	0.497900
C2061	C206	0.726900	0.679250	0.568390
C2071	C207	0.673800	0.651390	0.580680
C2081	C208	0.671300	0.651650	0.602270
H1281	H128	0.701400	0.670200	0.609600
Zn91	Zn9	0.293580	0.540020	0.218550
O491	O49	0.558700	0.316840	0.984410
O501	O50	0.725600	0.306330	0.999690
O511	O51	0.793900	0.346380	0.073100
O521	O52	0.677500	0.384800	0.085540
O531	O53	0.240100	0.543200	0.173380
O541	O54	0.253600	0.577490	0.200460
N491	N49	0.871900	0.413020	0.117240
N501	N50	0.857300	0.442790	0.145960
N511	N51	0.560000	0.480350	0.194900
N521	N52	0.403100	0.504950	0.207180
N531	N53	0.971300	0.491900	0.211250
N541	N54	0.137300	0.515410	0.220270
C2091	C209	0.624200	0.318560	0.999560
C2101	C210	0.585300	0.336700	0.019380
C2111	C211	0.474600	0.350210	0.019660
H1291	H129	0.425100	0.347800	0.007800
C2121	C212	0.434300	0.367540	0.037230
C2131	C213	0.507300	0.371230	0.054430
H1301	H130	0.480700	0.382900	0.066400
C2141	C214	0.620100	0.357780	0.054030
C2151	C215	0.659200	0.340590	0.036590
H1311	H131	0.735800	0.331500	0.036400
C2161	C216	0.700400	0.363400	0.072250
C2171	C217	0.952800	0.437100	0.116520
H1321	H132	0.005000	0.440800	0.105200
C2181	C218	0.949200	0.455400	0.134320
H1331	H133	0.999400	0.473200	0.138000
C2191	C219	0.815300	0.416780	0.135140
H1341	H134	0.753200	0.403000	0.139800
C2201	C220	0.824000	0.455080	0.165800
C2211	C221	0.912100	0.464700	0.179370
H1351	H135	0.992000	0.460900	0.176000
C2221	C222	0.880800	0.480080	0.197970
C2231	C223	0.765900	0.484810	0.203550
H1361	H136	0.746000	0.495000	0.216500
C2241	C224	0.680100	0.474310	0.189820
C2251	C225	0.706500	0.459480	0.170710
H1371	H137	0.646500	0.452600	0.161400
C2261	C226	0.464900	0.460820	0.189020
H1381	H138	0.466800	0.440900	0.181200
C2271	C227	0.369600	0.476190	0.196800
H1391	H139	0.291400	0.468500	0.195400
C2281	C228	0.518300	0.506540	0.205790
H1401	H140	0.565100	0.523600	0.211600
C2291	C229	0.971200	0.493740	0.232930
H1411	H141	0.911500	0.486400	0.242200
C2301	C230	0.073500	0.505140	0.204410
H1421	H142	0.095900	0.506800	0.190100
C2311	C231	0.073900	0.508240	0.238190
H1431	H143	0.098700	0.512800	0.252100
C2321	C232	0.226900	0.570750	0.181610
C2331	C233	0.173800	0.598610	0.169320
C2341	C234	0.171300	0.598350	0.147730
H1441	H144	0.201400	0.579800	0.140400
Zn101	Zn10	0.293580	0.040020	0.718550
O551	O55	0.558700	0.816840	0.484410
O561	O56	0.725600	0.806330	0.499690
O571	O57	0.793900	0.846380	0.573100
O581	O58	0.677500	0.884800	0.585540
O591	O59	0.240100	0.043200	0.673380
O601	O60	0.253600	0.077490	0.700460
N551	N55	0.871900	0.913020	0.617240
N561	N56	0.857300	0.942790	0.645960
N571	N57	0.560000	0.980350	0.694900
N581	N58	0.403100	0.004950	0.707180
N591	N59	0.971300	0.991900	0.711250
N601	N60	0.137300	0.015410	0.720270
C2351	C235	0.624200	0.818560	0.499560
C2361	C236	0.585300	0.836700	0.519380
C2371	C237	0.474600	0.850210	0.519660
H1451	H145	0.425100	0.847800	0.507800
C2381	C238	0.434300	0.867540	0.537230
C2391	C239	0.507300	0.871230	0.554430
H1461	H146	0.480700	0.882900	0.566400
C2401	C240	0.620100	0.857780	0.554030
C2411	C241	0.659200	0.840590	0.536590
H1471	H147	0.735800	0.831500	0.536400
C2421	C242	0.700400	0.863400	0.572250
C2431	C243	0.952800	0.937100	0.616520
H1481	H148	0.005000	0.940800	0.605200
C2441	C244	0.949200	0.955400	0.634320
H1491	H149	0.999400	0.973200	0.638000
C2451	C245	0.815300	0.916780	0.635140
H1501	H150	0.753200	0.903000	0.639800
C2461	C246	0.824000	0.955080	0.665800
C2471	C247	0.912100	0.964700	0.679370
H1511	H151	0.992000	0.960900	0.676000
C2481	C248	0.880800	0.980080	0.697970
C2491	C249	0.765900	0.984810	0.703550
H1521	H152	0.746000	0.995000	0.716500
C2501	C250	0.680100	0.974310	0.689820
C2511	C251	0.706500	0.959480	0.670710
H1531	H153	0.646500	0.952600	0.661400
C2521	C252	0.464900	0.960820	0.689020
H1541	H154	0.466800	0.940900	0.681200
C2531	C253	0.369600	0.976190	0.696800
H1551	H155	0.291400	0.968500	0.695400
C2541	C254	0.518300	0.006540	0.705790
H1561	H156	0.565100	0.023600	0.711600
C2551	C255	0.971200	0.993740	0.732930
H1571	H157	0.911500	0.986400	0.742200
C2561	C256	0.073500	0.005140	0.704410
H1581	H158	0.095900	0.006800	0.690100
C2571	C257	0.073900	0.008240	0.738190
H1591	H159	0.098700	0.012800	0.752100
C2581	C258	0.226900	0.070750	0.681610
C2591	C259	0.173800	0.098610	0.669320
C2601	C260	0.171300	0.098350	0.647730
H1601	H160	0.201400	0.079800	0.640400
Zn111	Zn11	0.793580	0.540020	0.718550
O611	O61	0.058700	0.316840	0.484410
O621	O62	0.225600	0.306330	0.499690
O631	O63	0.293900	0.346380	0.573100
O641	O64	0.177500	0.384800	0.585540
O651	O65	0.740100	0.543200	0.673380
O661	O66	0.753600	0.577490	0.700460
N611	N61	0.371900	0.413020	0.617240
N621	N62	0.357300	0.442790	0.645960
N631	N63	0.060000	0.480350	0.694900
N641	N64	0.903100	0.504950	0.707180
N651	N65	0.471300	0.491900	0.711250
N661	N66	0.637300	0.515410	0.720270
C2611	C261	0.124200	0.318560	0.499560
C2621	C262	0.085300	0.336700	0.519380
C2631	C263	0.974600	0.350210	0.519660
H1611	H161	0.925100	0.347800	0.507800
C2641	C264	0.934300	0.367540	0.537230
C2651	C265	0.007300	0.371230	0.554430
H1621	H162	0.980700	0.382900	0.566400
C2661	C266	0.120100	0.357780	0.554030
C2671	C267	0.159200	0.340590	0.536590
H1631	H163	0.235800	0.331500	0.536400
C2681	C268	0.200400	0.363400	0.572250
C2691	C269	0.452800	0.437100	0.616520
H1641	H164	0.505000	0.440800	0.605200
C2701	C270	0.449200	0.455400	0.634320
H1651	H165	0.499400	0.473200	0.638000
C2711	C271	0.315300	0.416780	0.635140
H1661	H166	0.253200	0.403000	0.639800
C2721	C272	0.324000	0.455080	0.665800
C2731	C273	0.412100	0.464700	0.679370
H1671	H167	0.492000	0.460900	0.676000
C2741	C274	0.380800	0.480080	0.697970
C2751	C275	0.265900	0.484810	0.703550
H1681	H168	0.246000	0.495000	0.716500
C2761	C276	0.180100	0.474310	0.689820
C2771	C277	0.206500	0.459480	0.670710
H1691	H169	0.146500	0.452600	0.661400
C2781	C278	0.964900	0.460820	0.689020
H1701	H170	0.966800	0.440900	0.681200
C2791	C279	0.869600	0.476190	0.696800
H1711	H171	0.791400	0.468500	0.695400
C2801	C280	0.018300	0.506540	0.705790
H1721	H172	0.065100	0.523600	0.711600
C2811	C281	0.471200	0.493740	0.732930
H1731	H173	0.411500	0.486400	0.742200
C2821	C282	0.573500	0.505140	0.704410
H1741	H174	0.595900	0.506800	0.690100
C2831	C283	0.573900	0.508240	0.738190
H1751	H175	0.598700	0.512800	0.752100
C2841	C284	0.726900	0.570750	0.681610
C2851	C285	0.673800	0.598610	0.669320
C2861	C286	0.671300	0.598350	0.647730
H1761	H176	0.701400	0.579800	0.640400
Zn121	Zn12	0.793580	0.040020	0.218550
O671	O67	0.058700	0.816840	0.984410
O681	O68	0.225600	0.806330	0.999690
O691	O69	0.293900	0.846380	0.073100
O701	O70	0.177500	0.884800	0.085540
O711	O71	0.740100	0.043200	0.173380
O721	O72	0.753600	0.077490	0.200460
N671	N67	0.371900	0.913020	0.117240
N681	N68	0.357300	0.942790	0.145960
N691	N69	0.060000	0.980350	0.194900
N701	N70	0.903100	0.004950	0.207180
N711	N71	0.471300	0.991900	0.211250
N721	N72	0.637300	0.015410	0.220270
C2871	C287	0.124200	0.818560	0.999560
C2881	C288	0.085300	0.836700	0.019380
C2891	C289	0.974600	0.850210	0.019660
H1771	H177	0.925100	0.847800	0.007800
C2901	C290	0.934300	0.867540	0.037230
C2911	C291	0.007300	0.871230	0.054430
H1781	H178	0.980700	0.882900	0.066400
C2921	C292	0.120100	0.857780	0.054030
C2931	C293	0.159200	0.840590	0.036590
H1791	H179	0.235800	0.831500	0.036400
C2941	C294	0.200400	0.863400	0.072250
C2951	C295	0.452800	0.937100	0.116520
H1801	H180	0.505000	0.940800	0.105200
C2961	C296	0.449200	0.955400	0.134320
H1811	H181	0.499400	0.973200	0.138000
C2971	C297	0.315300	0.916780	0.135140
H1821	H182	0.253200	0.903000	0.139800
C2981	C298	0.324000	0.955080	0.165800
C2991	C299	0.412100	0.964700	0.179370
H1831	H183	0.492000	0.960900	0.176000
C3001	C300	0.380800	0.980080	0.197970
C3011	C301	0.265900	0.984810	0.203550
H1841	H184	0.246000	0.995000	0.216500
C3021	C302	0.180100	0.974310	0.189820
C3031	C303	0.206500	0.959480	0.170710
H1851	H185	0.146500	0.952600	0.161400
C3041	C304	0.964900	0.960820	0.189020
H1861	H186	0.966800	0.940900	0.181200
C3051	C305	0.869600	0.976190	0.196800
H1871	H187	0.791400	0.968500	0.195400
C3061	C306	0.018300	0.006540	0.205790
H1881	H188	0.065100	0.023600	0.211600
C3071	C307	0.471200	0.993740	0.232930
H1891	H189	0.411500	0.986400	0.242200
C3081	C308	0.573500	0.005140	0.204410
H1901	H190	0.595900	0.006800	0.190100
C3091	C309	0.573900	0.008240	0.238190
H1911	H191	0.598700	0.012800	0.252100
C3101	C310	0.726900	0.070750	0.181610
C3111	C311	0.673800	0.098610	0.169320
C3121	C312	0.671300	0.098350	0.147730
H1921	H192	0.701400	0.079800	0.140400
Zn131	Zn13	0.456420	0.209980	0.218550
O731	O73	0.191300	0.433160	0.984410
O741	O74	0.024400	0.443670	0.999690
O751	O75	0.956100	0.403620	0.073100
O761	O76	0.072500	0.365200	0.085540
O771	O77	0.509900	0.206800	0.173380
O781	O78	0.496400	0.172510	0.200460
N731	N73	0.878100	0.336980	0.117240
N741	N74	0.892700	0.307210	0.145960
N751	N75	0.190000	0.269650	0.194900
N761	N76	0.346900	0.245050	0.207180
N771	N77	0.778700	0.258100	0.211250
N781	N78	0.612700	0.234590	0.220270
C3131	C313	0.125800	0.431440	0.999560
C3141	C314	0.164700	0.413300	0.019380
C3151	C315	0.275400	0.399790	0.019660
H1931	H193	0.324900	0.402200	0.007800
C3161	C316	0.315700	0.382460	0.037230
C3171	C317	0.242700	0.378770	0.054430
H1941	H194	0.269300	0.367100	0.066400
C3181	C318	0.129900	0.392220	0.054030
C3191	C319	0.090800	0.409410	0.036590
H1951	H195	0.014200	0.418500	0.036400
C3201	C320	0.049600	0.386600	0.072250
C3211	C321	0.797200	0.312900	0.116520
H1961	H196	0.745000	0.309200	0.105200
C3221	C322	0.800800	0.294600	0.134320
H1971	H197	0.750600	0.276800	0.138000
C3231	C323	0.934700	0.333220	0.135140
H1981	H198	0.996800	0.347000	0.139800
C3241	C324	0.926000	0.294920	0.165800
C3251	C325	0.837900	0.285300	0.179370
H1991	H199	0.758000	0.289100	0.176000
C3261	C326	0.869200	0.269920	0.197970
C3271	C327	0.984100	0.265190	0.203550
H2001	H200	0.004000	0.255000	0.216500
C3281	C328	0.069900	0.275690	0.189820
C3291	C329	0.043500	0.290520	0.170710
H2011	H201	0.103500	0.297400	0.161400
C3301	C330	0.285100	0.289180	0.189020
H2021	H202	0.283200	0.309100	0.181200
C3311	C331	0.380400	0.273810	0.196800
H2031	H203	0.458600	0.281500	0.195400
C3321	C332	0.231700	0.243460	0.205790
H2041	H204	0.184900	0.226400	0.211600
C3331	C333	0.778800	0.256260	0.232930
H2051	H205	0.838500	0.263600	0.242200
C3341	C334	0.676500	0.244860	0.204410
H2061	H206	0.654100	0.243200	0.190100
C3351	C335	0.676100	0.241760	0.238190
H2071	H207	0.651300	0.237200	0.252100
C3361	C336	0.523100	0.179250	0.181610
C3371	C337	0.576200	0.151390	0.169320
C3381	C338	0.578700	0.151650	0.147730
H2081	H208	0.548600	0.170200	0.140400
Zn141	Zn14	0.456420	0.709980	0.718550
O791	O79	0.191300	0.933160	0.484410
O801	O80	0.024400	0.943670	0.499690
O811	O81	0.956100	0.903620	0.573100
O821	O82	0.072500	0.865200	0.585540
O831	O83	0.509900	0.706800	0.673380
O841	O84	0.496400	0.672510	0.700460
N791	N79	0.878100	0.836980	0.617240
N801	N80	0.892700	0.807210	0.645960
N811	N81	0.190000	0.769650	0.694900
N821	N82	0.346900	0.745050	0.707180
N831	N83	0.778700	0.758100	0.711250
N841	N84	0.612700	0.734590	0.720270
C3391	C339	0.125800	0.931440	0.499560
C3401	C340	0.164700	0.913300	0.519380
C3411	C341	0.275400	0.899790	0.519660
H2091	H209	0.324900	0.902200	0.507800
C3421	C342	0.315700	0.882460	0.537230
C3431	C343	0.242700	0.878770	0.554430
H2101	H210	0.269300	0.867100	0.566400
C3441	C344	0.129900	0.892220	0.554030
C3451	C345	0.090800	0.909410	0.536590
H2111	H211	0.014200	0.918500	0.536400
C3461	C346	0.049600	0.886600	0.572250
C3471	C347	0.797200	0.812900	0.616520
H2121	H212	0.745000	0.809200	0.605200
C3481	C348	0.800800	0.794600	0.634320
H2131	H213	0.750600	0.776800	0.638000
C3491	C349	0.934700	0.833220	0.635140
H2141	H214	0.996800	0.847000	0.639800
C3501	C350	0.926000	0.794920	0.665800
C3511	C351	0.837900	0.785300	0.679370
H2151	H215	0.758000	0.789100	0.676000
C3521	C352	0.869200	0.769920	0.697970
C3531	C353	0.984100	0.765190	0.703550
H2161	H216	0.004000	0.755000	0.716500
C3541	C354	0.069900	0.775690	0.689820
C3551	C355	0.043500	0.790520	0.670710
H2171	H217	0.103500	0.797400	0.661400
C3561	C356	0.285100	0.789180	0.689020
H2181	H218	0.283200	0.809100	0.681200
C3571	C357	0.380400	0.773810	0.696800
H2191	H219	0.458600	0.781500	0.695400
C3581	C358	0.231700	0.743460	0.705790
H2201	H220	0.184900	0.726400	0.711600
C3591	C359	0.778800	0.756260	0.732930
H2211	H221	0.838500	0.763600	0.742200
C3601	C360	0.676500	0.744860	0.704410
H2221	H222	0.654100	0.743200	0.690100
C3611	C361	0.676100	0.741760	0.738190
H2231	H223	0.651300	0.737200	0.752100
C3621	C362	0.523100	0.679250	0.681610
C3631	C363	0.576200	0.651390	0.669320
C3641	C364	0.578700	0.651650	0.647730
H2241	H224	0.548600	0.670200	0.640400
Zn151	Zn15	0.956420	0.209980	0.718550
O851	O85	0.691300	0.433160	0.484410
O861	O86	0.524400	0.443670	0.499690
O871	O87	0.456100	0.403620	0.573100
O881	O88	0.572500	0.365200	0.585540
O891	O89	0.009900	0.206800	0.673380
O901	O90	0.996400	0.172510	0.700460
N851	N85	0.378100	0.336980	0.617240
N861	N86	0.392700	0.307210	0.645960
N871	N87	0.690000	0.269650	0.694900
N881	N88	0.846900	0.245050	0.707180
N891	N89	0.278700	0.258100	0.711250
N901	N90	0.112700	0.234590	0.720270
C3651	C365	0.625800	0.431440	0.499560
C3661	C366	0.664700	0.413300	0.519380
C3671	C367	0.775400	0.399790	0.519660
H2251	H225	0.824900	0.402200	0.507800
C3681	C368	0.815700	0.382460	0.537230
C3691	C369	0.742700	0.378770	0.554430
H2261	H226	0.769300	0.367100	0.566400
C3701	C370	0.629900	0.392220	0.554030
C3711	C371	0.590800	0.409410	0.536590
H2271	H227	0.514200	0.418500	0.536400
C3721	C372	0.549600	0.386600	0.572250
C3731	C373	0.297200	0.312900	0.616520
H2281	H228	0.245000	0.309200	0.605200
C3741	C374	0.300800	0.294600	0.634320
H2291	H229	0.250600	0.276800	0.638000
C3751	C375	0.434700	0.333220	0.635140
H2301	H230	0.496800	0.347000	0.639800
C3761	C376	0.426000	0.294920	0.665800
C3771	C377	0.337900	0.285300	0.679370
H2311	H231	0.258000	0.289100	0.676000
C3781	C378	0.369200	0.269920	0.697970
C3791	C379	0.484100	0.265190	0.703550
H2321	H232	0.504000	0.255000	0.716500
C3801	C380	0.569900	0.275690	0.689820
C3811	C381	0.543500	0.290520	0.670710
H2331	H233	0.603500	0.297400	0.661400
C3821	C382	0.785100	0.289180	0.689020
H2341	H234	0.783200	0.309100	0.681200
C3831	C383	0.880400	0.273810	0.696800
H2351	H235	0.958600	0.281500	0.695400
C3841	C384	0.731700	0.243460	0.705790
H2361	H236	0.684900	0.226400	0.711600
C3851	C385	0.278800	0.256260	0.732930
H2371	H237	0.338500	0.263600	0.742200
C3861	C386	0.176500	0.244860	0.704410
H2381	H238	0.154100	0.243200	0.690100
C3871	C387	0.176100	0.241760	0.738190
H2391	H239	0.151300	0.237200	0.752100
C3881	C388	0.023100	0.179250	0.681610
C3891	C389	0.076200	0.151390	0.669320
C3901	C390	0.078700	0.151650	0.647730
H2401	H240	0.048600	0.170200	0.640400
Zn161	Zn16	0.956420	0.709980	0.218550
O911	O91	0.691300	0.933160	0.984410
O921	O92	0.524400	0.943670	0.999690
O931	O93	0.456100	0.903620	0.073100
O941	O94	0.572500	0.865200	0.085540
O951	O95	0.009900	0.706800	0.173380
O961	O96	0.996400	0.672510	0.200460
N911	N91	0.378100	0.836980	0.117240
N921	N92	0.392700	0.807210	0.145960
N931	N93	0.690000	0.769650	0.194900
N941	N94	0.846900	0.745050	0.207180
N951	N95	0.278700	0.758100	0.211250
N961	N96	0.112700	0.734590	0.220270
C3911	C391	0.625800	0.931440	0.999560
C3921	C392	0.664700	0.913300	0.019380
C3931	C393	0.775400	0.899790	0.019660
H2411	H241	0.824900	0.902200	0.007800
C3941	C394	0.815700	0.882460	0.037230
C3951	C395	0.742700	0.878770	0.054430
H2421	H242	0.769300	0.867100	0.066400
C3961	C396	0.629900	0.892220	0.054030
C3971	C397	0.590800	0.909410	0.036590
H2431	H243	0.514200	0.918500	0.036400
C3981	C398	0.549600	0.886600	0.072250
C3991	C399	0.297200	0.812900	0.116520
H2441	H244	0.245000	0.809200	0.105200
C4001	C400	0.300800	0.794600	0.134320
H2451	H245	0.250600	0.776800	0.138000
C4011	C401	0.434700	0.833220	0.135140
H2461	H246	0.496800	0.847000	0.139800
C4021	C402	0.426000	0.794920	0.165800
C4031	C403	0.337900	0.785300	0.179370
H2471	H247	0.258000	0.789100	0.176000
C4041	C404	0.369200	0.769920	0.197970
C4051	C405	0.484100	0.765190	0.203550
H2481	H248	0.504000	0.755000	0.216500
C4061	C406	0.569900	0.775690	0.189820
C4071	C407	0.543500	0.790520	0.170710
H2491	H249	0.603500	0.797400	0.161400
C4081	C408	0.785100	0.789180	0.189020
H2501	H250	0.783200	0.809100	0.181200
C4091	C409	0.880400	0.773810	0.196800
H2511	H251	0.958600	0.781500	0.195400
C4101	C410	0.731700	0.743460	0.205790
H2521	H252	0.684900	0.726400	0.211600
C4111	C411	0.278800	0.756260	0.232930
H2531	H253	0.338500	0.763600	0.242200
C4121	C412	0.176500	0.744860	0.204410
H2541	H254	0.154100	0.743200	0.190100
C4131	C413	0.176100	0.741760	0.238190
H2551	H255	0.151300	0.737200	0.252100
C4141	C414	0.023100	0.679250	0.181610
C4151	C415	0.076200	0.651390	0.169320
C4161	C416	0.078700	0.651650	0.147730
H2561	H256	0.048600	0.670200	0.140400
Zn171	Zn17	0.543580	0.459980	0.468550
O971	O97	0.808700	0.683160	0.234410
O981	O98	0.975600	0.693670	0.249690
O991	O99	0.043900	0.653620	0.323100
O1001	O100	0.927500	0.615200	0.335540
O1011	O101	0.490100	0.456800	0.423380
O1021	O102	0.503600	0.422510	0.450460
N971	N97	0.121900	0.586980	0.367240
N981	N98	0.107300	0.557210	0.395960
N991	N99	0.810000	0.519650	0.444900
N1001	N100	0.653100	0.495050	0.457180
N1011	N101	0.221300	0.508100	0.461250
N1021	N102	0.387300	0.484590	0.470270
C4171	C417	0.874200	0.681440	0.249560
C4181	C418	0.835300	0.663300	0.269380
C4191	C419	0.724600	0.649790	0.269660
H2571	H257	0.675100	0.652200	0.257800
C4201	C420	0.684300	0.632460	0.287230
C4211	C421	0.757300	0.628770	0.304430
H2581	H258	0.730700	0.617100	0.316400
C4221	C422	0.870100	0.642220	0.304030
C4231	C423	0.909200	0.659410	0.286590
H2591	H259	0.985800	0.668500	0.286400
C4241	C424	0.950400	0.636600	0.322250
C4251	C425	0.202800	0.562900	0.366520
H2601	H260	0.255000	0.559200	0.355200
C4261	C426	0.199200	0.544600	0.384320
H2611	H261	0.249400	0.526800	0.388000
C4271	C427	0.065300	0.583220	0.385140
H2621	H262	0.003200	0.597000	0.389800
C4281	C428	0.074000	0.544920	0.415800
C4291	C429	0.162100	0.535300	0.429370
H2631	H263	0.242000	0.539100	0.426000
C4301	C430	0.130800	0.519920	0.447970
C4311	C431	0.015900	0.515190	0.453550
H2641	H264	0.996000	0.505000	0.466500
C4321	C432	0.930100	0.525690	0.439820
C4331	C433	0.956500	0.540520	0.420710
H2651	H265	0.896500	0.547400	0.411400
C4341	C434	0.714900	0.539180	0.439020
H2661	H266	0.716800	0.559100	0.431200
C4351	C435	0.619600	0.523810	0.446800
H2671	H267	0.541400	0.531500	0.445400
C4361	C436	0.768300	0.493460	0.455790
H2681	H268	0.815100	0.476400	0.461600
C4371	C437	0.221200	0.506260	0.482930
H2691	H269	0.161500	0.513600	0.492200
C4381	C438	0.323500	0.494860	0.454410
H2701	H270	0.345900	0.493200	0.440100
C4391	C439	0.323900	0.491760	0.488190
H2711	H271	0.348700	0.487200	0.502100
C4401	C440	0.476900	0.429250	0.431610
C4411	C441	0.423800	0.401390	0.419320
C4421	C442	0.421300	0.401650	0.397730
H2721	H272	0.451400	0.420200	0.390400
Zn181	Zn18	0.543580	0.959980	0.968550
O1031	O103	0.808700	0.183160	0.734410
O1041	O104	0.975600	0.193670	0.749690
O1051	O105	0.043900	0.153620	0.823100
O1061	O106	0.927500	0.115200	0.835540
O1071	O107	0.490100	0.956800	0.923380
O1081	O108	0.503600	0.922510	0.950460
N1031	N103	0.121900	0.086980	0.867240
N1041	N104	0.107300	0.057210	0.895960
N1051	N105	0.810000	0.019650	0.944900
N1061	N106	0.653100	0.995050	0.957180
N1071	N107	0.221300	0.008100	0.961250
N1081	N108	0.387300	0.984590	0.970270
C4431	C443	0.874200	0.181440	0.749560
C4441	C444	0.835300	0.163300	0.769380
C4451	C445	0.724600	0.149790	0.769660
H2731	H273	0.675100	0.152200	0.757800
C4461	C446	0.684300	0.132460	0.787230
C4471	C447	0.757300	0.128770	0.804430
H2741	H274	0.730700	0.117100	0.816400
C4481	C448	0.870100	0.142220	0.804030
C4491	C449	0.909200	0.159410	0.786590
H2751	H275	0.985800	0.168500	0.786400
C4501	C450	0.950400	0.136600	0.822250
C4511	C451	0.202800	0.062900	0.866520
H2761	H276	0.255000	0.059200	0.855200
C4521	C452	0.199200	0.044600	0.884320
H2771	H277	0.249400	0.026800	0.888000
C4531	C453	0.065300	0.083220	0.885140
H2781	H278	0.003200	0.097000	0.889800
C4541	C454	0.074000	0.044920	0.915800
C4551	C455	0.162100	0.035300	0.929370
H2791	H279	0.242000	0.039100	0.926000
C4561	C456	0.130800	0.019920	0.947970
C4571	C457	0.015900	0.015190	0.953550
H2801	H280	0.996000	0.005000	0.966500
C4581	C458	0.930100	0.025690	0.939820
C4591	C459	0.956500	0.040520	0.920710
H2811	H281	0.896500	0.047400	0.911400
C4601	C460	0.714900	0.039180	0.939020
H2821	H282	0.716800	0.059100	0.931200
C4611	C461	0.619600	0.023810	0.946800
H2831	H283	0.541400	0.031500	0.945400
C4621	C462	0.768300	0.993460	0.955790
H2841	H284	0.815100	0.976400	0.961600
C4631	C463	0.221200	0.006260	0.982930
H2851	H285	0.161500	0.013600	0.992200
C4641	C464	0.323500	0.994860	0.954410
H2861	H286	0.345900	0.993200	0.940100
C4651	C465	0.323900	0.991760	0.988190
H2871	H287	0.348700	0.987200	0.002100
C4661	C466	0.476900	0.929250	0.931610
C4671	C467	0.423800	0.901390	0.919320
C4681	C468	0.421300	0.901650	0.897730
H2881	H288	0.451400	0.920200	0.890400
Zn191	Zn19	0.043580	0.459980	0.968550
O1091	O109	0.308700	0.683160	0.734410
O1101	O110	0.475600	0.693670	0.749690
O1111	O111	0.543900	0.653620	0.823100
O1121	O112	0.427500	0.615200	0.835540
O1131	O113	0.990100	0.456800	0.923380
O1141	O114	0.003600	0.422510	0.950460
N1091	N109	0.621900	0.586980	0.867240
N1101	N110	0.607300	0.557210	0.895960
N1111	N111	0.310000	0.519650	0.944900
N1121	N112	0.153100	0.495050	0.957180
N1131	N113	0.721300	0.508100	0.961250
N1141	N114	0.887300	0.484590	0.970270
C4691	C469	0.374200	0.681440	0.749560
C4701	C470	0.335300	0.663300	0.769380
C4711	C471	0.224600	0.649790	0.769660
H2891	H289	0.175100	0.652200	0.757800
C4721	C472	0.184300	0.632460	0.787230
C4731	C473	0.257300	0.628770	0.804430
H2901	H290	0.230700	0.617100	0.816400
C4741	C474	0.370100	0.642220	0.804030
C4751	C475	0.409200	0.659410	0.786590
H2911	H291	0.485800	0.668500	0.786400
C4761	C476	0.450400	0.636600	0.822250
C4771	C477	0.702800	0.562900	0.866520
H2921	H292	0.755000	0.559200	0.855200
C4781	C478	0.699200	0.544600	0.884320
H2931	H293	0.749400	0.526800	0.888000
C4791	C479	0.565300	0.583220	0.885140
H2941	H294	0.503200	0.597000	0.889800
C4801	C480	0.574000	0.544920	0.915800
C4811	C481	0.662100	0.535300	0.929370
H2951	H295	0.742000	0.539100	0.926000
C4821	C482	0.630800	0.519920	0.947970
C4831	C483	0.515900	0.515190	0.953550
H2961	H296	0.496000	0.505000	0.966500
C4841	C484	0.430100	0.525690	0.939820
C4851	C485	0.456500	0.540520	0.920710
H2971	H297	0.396500	0.547400	0.911400
C4861	C486	0.214900	0.539180	0.939020
H2981	H298	0.216800	0.559100	0.931200
C4871	C487	0.119600	0.523810	0.946800
H2991	H299	0.041400	0.531500	0.945400
C4881	C488	0.268300	0.493460	0.955790
H3001	H300	0.315100	0.476400	0.961600
C4891	C489	0.721200	0.506260	0.982930
H3011	H301	0.661500	0.513600	0.992200
C4901	C490	0.823500	0.494860	0.954410
H3021	H302	0.845900	0.493200	0.940100
C4911	C491	0.823900	0.491760	0.988190
H3031	H303	0.848700	0.487200	0.002100
C4921	C492	0.976900	0.429250	0.931610
C4931	C493	0.923800	0.401390	0.919320
C4941	C494	0.921300	0.401650	0.897730
H3041	H304	0.951400	0.420200	0.890400
Zn201	Zn20	0.043580	0.959980	0.468550
O1151	O115	0.308700	0.183160	0.234410
O1161	O116	0.475600	0.193670	0.249690
O1171	O117	0.543900	0.153620	0.323100
O1181	O118	0.427500	0.115200	0.335540
O1191	O119	0.990100	0.956800	0.423380
O1201	O120	0.003600	0.922510	0.450460
N1151	N115	0.621900	0.086980	0.367240
N1161	N116	0.607300	0.057210	0.395960
N1171	N117	0.310000	0.019650	0.444900
N1181	N118	0.153100	0.995050	0.457180
N1191	N119	0.721300	0.008100	0.461250
N1201	N120	0.887300	0.984590	0.470270
C4951	C495	0.374200	0.181440	0.249560
C4961	C496	0.335300	0.163300	0.269380
C4971	C497	0.224600	0.149790	0.269660
H3051	H305	0.175100	0.152200	0.257800
C4981	C498	0.184300	0.132460	0.287230
C4991	C499	0.257300	0.128770	0.304430
H3061	H306	0.230700	0.117100	0.316400
C5001	C500	0.370100	0.142220	0.304030
C5011	C501	0.409200	0.159410	0.286590
H3071	H307	0.485800	0.168500	0.286400
C5021	C502	0.450400	0.136600	0.322250
C5031	C503	0.702800	0.062900	0.366520
H3081	H308	0.755000	0.059200	0.355200
C5041	C504	0.699200	0.044600	0.384320
H3091	H309	0.749400	0.026800	0.388000
C5051	C505	0.565300	0.083220	0.385140
H3101	H310	0.503200	0.097000	0.389800
C5061	C506	0.574000	0.044920	0.415800
C5071	C507	0.662100	0.035300	0.429370
H3111	H311	0.742000	0.039100	0.426000
C5081	C508	0.630800	0.019920	0.447970
C5091	C509	0.515900	0.015190	0.453550
H3121	H312	0.496000	0.005000	0.466500
C5101	C510	0.430100	0.025690	0.439820
C5111	C511	0.456500	0.040520	0.420710
H3131	H313	0.396500	0.047400	0.411400
C5121	C512	0.214900	0.039180	0.439020
H3141	H314	0.216800	0.059100	0.431200
C5131	C513	0.119600	0.023810	0.446800
H3151	H315	0.041400	0.031500	0.445400
C5141	C514	0.268300	0.993460	0.455790
H3161	H316	0.315100	0.976400	0.461600
C5151	C515	0.721200	0.006260	0.482930
H3171	H317	0.661500	0.013600	0.492200
C5161	C516	0.823500	0.994860	0.454410
H3181	H318	0.845900	0.993200	0.440100
C5171	C517	0.823900	0.991760	0.488190
H3191	H319	0.848700	0.987200	0.502100
C5181	C518	0.976900	0.929250	0.431610
C5191	C519	0.923800	0.901390	0.419320
C5201	C520	0.921300	0.901650	0.397730
H3201	H320	0.951400	0.920200	0.390400
Zn211	Zn21	0.706420	0.790020	0.468550
O1211	O121	0.441300	0.566840	0.234410
O1221	O122	0.274400	0.556330	0.249690
O1231	O123	0.206100	0.596380	0.323100
O1241	O124	0.322500	0.634800	0.335540
O1251	O125	0.759900	0.793200	0.423380
O1261	O126	0.746400	0.827490	0.450460
N1211	N121	0.128100	0.663020	0.367240
N1221	N122	0.142700	0.692790	0.395960
N1231	N123	0.440000	0.730350	0.444900
N1241	N124	0.596900	0.754950	0.457180
N1251	N125	0.028700	0.741900	0.461250
N1261	N126	0.862700	0.765410	0.470270
C5211	C521	0.375800	0.568560	0.249560
C5221	C522	0.414700	0.586700	0.269380
C5231	C523	0.525400	0.600210	0.269660
H3211	H321	0.574900	0.597800	0.257800
C5241	C524	0.565700	0.617540	0.287230
C5251	C525	0.492700	0.621230	0.304430
H3221	H322	0.519300	0.632900	0.316400
C5261	C526	0.379900	0.607780	0.304030
C5271	C527	0.340800	0.590590	0.286590
H3231	H323	0.264200	0.581500	0.286400
C5281	C528	0.299600	0.613400	0.322250
C5291	C529	0.047200	0.687100	0.366520
H3241	H324	0.995000	0.690800	0.355200
C5301	C530	0.050800	0.705400	0.384320
H3251	H325	0.000600	0.723200	0.388000
C5311	C531	0.184700	0.666780	0.385140
H3261	H326	0.246800	0.653000	0.389800
C5321	C532	0.176000	0.705080	0.415800
C5331	C533	0.087900	0.714700	0.429370
H3271	H327	0.008000	0.710900	0.426000
C5341	C534	0.119200	0.730080	0.447970
C5351	C535	0.234100	0.734810	0.453550
H3281	H328	0.254000	0.745000	0.466500
C5361	C536	0.319900	0.724310	0.439820
C5371	C537	0.293500	0.709480	0.420710
H3291	H329	0.353500	0.702600	0.411400
C5381	C538	0.535100	0.710820	0.439020
H3301	H330	0.533200	0.690900	0.431200
C5391	C539	0.630400	0.726190	0.446800
H3311	H331	0.708600	0.718500	0.445400
C5401	C540	0.481700	0.756540	0.455790
H3321	H332	0.434900	0.773600	0.461600
C5411	C541	0.028800	0.743740	0.482930
H3331	H333	0.088500	0.736400	0.492200
C5421	C542	0.926500	0.755140	0.454410
H3341	H334	0.904100	0.756800	0.440100
C5431	C543	0.926100	0.758240	0.488190
H3351	H335	0.901300	0.762800	0.502100
C5441	C544	0.773100	0.820750	0.431610
C5451	C545	0.826200	0.848610	0.419320
C5461	C546	0.828700	0.848350	0.397730
H3361	H336	0.798600	0.829800	0.390400
Zn221	Zn22	0.706420	0.290020	0.968550
O1271	O127	0.441300	0.066840	0.734410
O1281	O128	0.274400	0.056330	0.749690
O1291	O129	0.206100	0.096380	0.823100
O1301	O130	0.322500	0.134800	0.835540
O1311	O131	0.759900	0.293200	0.923380
O1321	O132	0.746400	0.327490	0.950460
N1271	N127	0.128100	0.163020	0.867240
N1281	N128	0.142700	0.192790	0.895960
N1291	N129	0.440000	0.230350	0.944900
N1301	N130	0.596900	0.254950	0.957180
N1311	N131	0.028700	0.241900	0.961250
N1321	N132	0.862700	0.265410	0.970270
C5471	C547	0.375800	0.068560	0.749560
C5481	C548	0.414700	0.086700	0.769380
C5491	C549	0.525400	0.100210	0.769660
H3371	H337	0.574900	0.097800	0.757800
C5501	C550	0.565700	0.117540	0.787230
C5511	C551	0.492700	0.121230	0.804430
H3381	H338	0.519300	0.132900	0.816400
C5521	C552	0.379900	0.107780	0.804030
C5531	C553	0.340800	0.090590	0.786590
H3391	H339	0.264200	0.081500	0.786400
C5541	C554	0.299600	0.113400	0.822250
C5551	C555	0.047200	0.187100	0.866520
H3401	H340	0.995000	0.190800	0.855200
C5561	C556	0.050800	0.205400	0.884320
H3411	H341	0.000600	0.223200	0.888000
C5571	C557	0.184700	0.166780	0.885140
H3421	H342	0.246800	0.153000	0.889800
C5581	C558	0.176000	0.205080	0.915800
C5591	C559	0.087900	0.214700	0.929370
H3431	H343	0.008000	0.210900	0.926000
C5601	C560	0.119200	0.230080	0.947970
C5611	C561	0.234100	0.234810	0.953550
H3441	H344	0.254000	0.245000	0.966500
C5621	C562	0.319900	0.224310	0.939820
C5631	C563	0.293500	0.209480	0.920710
H3451	H345	0.353500	0.202600	0.911400
C5641	C564	0.535100	0.210820	0.939020
H3461	H346	0.533200	0.190900	0.931200
C5651	C565	0.630400	0.226190	0.946800
H3471	H347	0.708600	0.218500	0.945400
C5661	C566	0.481700	0.256540	0.955790
H3481	H348	0.434900	0.273600	0.961600
C5671	C567	0.028800	0.243740	0.982930
H3491	H349	0.088500	0.236400	0.992200
C5681	C568	0.926500	0.255140	0.954410
H3501	H350	0.904100	0.256800	0.940100
C5691	C569	0.926100	0.258240	0.988190
H3511	H351	0.901300	0.262800	0.002100
C5701	C570	0.773100	0.320750	0.931610
C5711	C571	0.826200	0.348610	0.919320
C5721	C572	0.828700	0.348350	0.897730
H3521	H352	0.798600	0.329800	0.890400
Zn231	Zn23	0.206420	0.790020	0.968550
O1331	O133	0.941300	0.566840	0.734410
O1341	O134	0.774400	0.556330	0.749690
O1351	O135	0.706100	0.596380	0.823100
O1361	O136	0.822500	0.634800	0.835540
O1371	O137	0.259900	0.793200	0.923380
O1381	O138	0.246400	0.827490	0.950460
N1331	N133	0.628100	0.663020	0.867240
N1341	N134	0.642700	0.692790	0.895960
N1351	N135	0.940000	0.730350	0.944900
N1361	N136	0.096900	0.754950	0.957180
N1371	N137	0.528700	0.741900	0.961250
N1381	N138	0.362700	0.765410	0.970270
C5731	C573	0.875800	0.568560	0.749560
C5741	C574	0.914700	0.586700	0.769380
C5751	C575	0.025400	0.600210	0.769660
H3531	H353	0.074900	0.597800	0.757800
C5761	C576	0.065700	0.617540	0.787230
C5771	C577	0.992700	0.621230	0.804430
H3541	H354	0.019300	0.632900	0.816400
C5781	C578	0.879900	0.607780	0.804030
C5791	C579	0.840800	0.590590	0.786590
H3551	H355	0.764200	0.581500	0.786400
C5801	C580	0.799600	0.613400	0.822250
C5811	C581	0.547200	0.687100	0.866520
H3561	H356	0.495000	0.690800	0.855200
C5821	C582	0.550800	0.705400	0.884320
H3571	H357	0.500600	0.723200	0.888000
C5831	C583	0.684700	0.666780	0.885140
H3581	H358	0.746800	0.653000	0.889800
C5841	C584	0.676000	0.705080	0.915800
C5851	C585	0.587900	0.714700	0.929370
H3591	H359	0.508000	0.710900	0.926000
C5861	C586	0.619200	0.730080	0.947970
C5871	C587	0.734100	0.734810	0.953550
H3601	H360	0.754000	0.745000	0.966500
C5881	C588	0.819900	0.724310	0.939820
C5891	C589	0.793500	0.709480	0.920710
H3611	H361	0.853500	0.702600	0.911400
C5901	C590	0.035100	0.710820	0.939020
H3621	H362	0.033200	0.690900	0.931200
C5911	C591	0.130400	0.726190	0.946800
H3631	H363	0.208600	0.718500	0.945400
C5921	C592	0.981700	0.756540	0.955790
H3641	H364	0.934900	0.773600	0.961600
C5931	C593	0.528800	0.743740	0.982930
H3651	H365	0.588500	0.736400	0.992200
C5941	C594	0.426500	0.755140	0.954410
H3661	H366	0.404100	0.756800	0.940100
C5951	C595	0.426100	0.758240	0.988190
H3671	H367	0.401300	0.762800	0.002100
C5961	C596	0.273100	0.820750	0.931610
C5971	C597	0.326200	0.848610	0.919320
C5981	C598	0.328700	0.848350	0.897730
H3681	H368	0.298600	0.829800	0.890400
Zn241	Zn24	0.206420	0.290020	0.468550
O1391	O139	0.941300	0.066840	0.234410
O1401	O140	0.774400	0.056330	0.249690
O1411	O141	0.706100	0.096380	0.323100
O1421	O142	0.822500	0.134800	0.335540
O1431	O143	0.259900	0.293200	0.423380
O1441	O144	0.246400	0.327490	0.450460
N1391	N139	0.628100	0.163020	0.367240
N1401	N140	0.642700	0.192790	0.395960
N1411	N141	0.940000	0.230350	0.444900
N1421	N142	0.096900	0.254950	0.457180
N1431	N143	0.528700	0.241900	0.461250
N1441	N144	0.362700	0.265410	0.470270
C5991	C599	0.875800	0.068560	0.249560
C6001	C600	0.914700	0.086700	0.269380
C6011	C601	0.025400	0.100210	0.269660
H3691	H369	0.074900	0.097800	0.257800
C6021	C602	0.065700	0.117540	0.287230
C6031	C603	0.992700	0.121230	0.304430
H3701	H370	0.019300	0.132900	0.316400
C6041	C604	0.879900	0.107780	0.304030
C6051	C605	0.840800	0.090590	0.286590
H3711	H371	0.764200	0.081500	0.286400
C6061	C606	0.799600	0.113400	0.322250
C6071	C607	0.547200	0.187100	0.366520
H3721	H372	0.495000	0.190800	0.355200
C6081	C608	0.550800	0.205400	0.384320
H3731	H373	0.500600	0.223200	0.388000
C6091	C609	0.684700	0.166780	0.385140
H3741	H374	0.746800	0.153000	0.389800
C6101	C610	0.676000	0.205080	0.415800
C6111	C611	0.587900	0.214700	0.429370
H3751	H375	0.508000	0.210900	0.426000
C6121	C612	0.619200	0.230080	0.447970
C6131	C613	0.734100	0.234810	0.453550
H3761	H376	0.754000	0.245000	0.466500
C6141	C614	0.819900	0.224310	0.439820
C6151	C615	0.793500	0.209480	0.420710
H3771	H377	0.853500	0.202600	0.411400
C6161	C616	0.035100	0.210820	0.439020
H3781	H378	0.033200	0.190900	0.431200
C6171	C617	0.130400	0.226190	0.446800
H3791	H379	0.208600	0.218500	0.445400
C6181	C618	0.981700	0.256540	0.455790
H3801	H380	0.934900	0.273600	0.461600
C6191	C619	0.528800	0.243740	0.482930
H3811	H381	0.588500	0.236400	0.492200
C6201	C620	0.426500	0.255140	0.454410
H3821	H382	0.404100	0.256800	0.440100
C6211	C621	0.426100	0.258240	0.488190
H3831	H383	0.401300	0.262800	0.502100
C6221	C622	0.273100	0.320750	0.431610
C6231	C623	0.326200	0.348610	0.419320
C6241	C624	0.328700	0.348350	0.397730
H3841	H384	0.298600	0.329800	0.390400
Zn251	Zn25	0.706420	0.459980	0.781450
O1451	O145	0.441300	0.683160	0.015590
O1461	O146	0.274400	0.693670	0.000310
O1471	O147	0.206100	0.653620	0.926900
O1481	O148	0.322500	0.615200	0.914460
O1491	O149	0.759900	0.456800	0.826620
O1501	O150	0.746400	0.422510	0.799540
N1451	N145	0.128100	0.586980	0.882760
N1461	N146	0.142700	0.557210	0.854040
N1471	N147	0.440000	0.519650	0.805100
N1481	N148	0.596900	0.495050	0.792820
N1491	N149	0.028700	0.508100	0.788750
N1501	N150	0.862700	0.484590	0.779730
C6251	C625	0.375800	0.681440	0.000440
C6261	C626	0.414700	0.663300	0.980620
C6271	C627	0.525400	0.649790	0.980340
H3851	H385	0.574900	0.652200	0.992200
C6281	C628	0.565700	0.632460	0.962770
C6291	C629	0.492700	0.628770	0.945570
H3861	H386	0.519300	0.617100	0.933600
C6301	C630	0.379900	0.642220	0.945970
C6311	C631	0.340800	0.659410	0.963410
H3871	H387	0.264200	0.668500	0.963600
C6321	C632	0.299600	0.636600	0.927750
C6331	C633	0.047200	0.562900	0.883480
H3881	H388	0.995000	0.559200	0.894800
C6341	C634	0.050800	0.544600	0.865680
H3891	H389	0.000600	0.526800	0.862000
C6351	C635	0.184700	0.583220	0.864860
H3901	H390	0.246800	0.597000	0.860200
C6361	C636	0.176000	0.544920	0.834200
C6371	C637	0.087900	0.535300	0.820630
H3911	H391	0.008000	0.539100	0.824000
C6381	C638	0.119200	0.519920	0.802030
C6391	C639	0.234100	0.515190	0.796450
H3921	H392	0.254000	0.505000	0.783500
C6401	C640	0.319900	0.525690	0.810180
C6411	C641	0.293500	0.540520	0.829290
H3931	H393	0.353500	0.547400	0.838600
C6421	C642	0.535100	0.539180	0.810980
H3941	H394	0.533200	0.559100	0.818800
C6431	C643	0.630400	0.523810	0.803200
H3951	H395	0.708600	0.531500	0.804600
C6441	C644	0.481700	0.493460	0.794210
H3961	H396	0.434900	0.476400	0.788400
C6451	C645	0.028800	0.506260	0.767070
H3971	H397	0.088500	0.513600	0.757800
C6461	C646	0.926500	0.494860	0.795590
H3981	H398	0.904100	0.493200	0.809900
C6471	C647	0.926100	0.491760	0.761810
H3991	H399	0.901300	0.487200	0.747900
C6481	C648	0.773100	0.429250	0.818390
C6491	C649	0.826200	0.401390	0.830680
C6501	C650	0.828700	0.401650	0.852270
H4001	H400	0.798600	0.420200	0.859600
Zn261	Zn26	0.706420	0.959980	0.281450
O1511	O151	0.441300	0.183160	0.515590
O1521	O152	0.274400	0.193670	0.500310
O1531	O153	0.206100	0.153620	0.426900
O1541	O154	0.322500	0.115200	0.414460
O1551	O155	0.759900	0.956800	0.326620
O1561	O156	0.746400	0.922510	0.299540
N1511	N151	0.128100	0.086980	0.382760
N1521	N152	0.142700	0.057210	0.354040
N1531	N153	0.440000	0.019650	0.305100
N1541	N154	0.596900	0.995050	0.292820
N1551	N155	0.028700	0.008100	0.288750
N1561	N156	0.862700	0.984590	0.279730
C6511	C651	0.375800	0.181440	0.500440
C6521	C652	0.414700	0.163300	0.480620
C6531	C653	0.525400	0.149790	0.480340
H4011	H401	0.574900	0.152200	0.492200
C6541	C654	0.565700	0.132460	0.462770
C6551	C655	0.492700	0.128770	0.445570
H4021	H402	0.519300	0.117100	0.433600
C6561	C656	0.379900	0.142220	0.445970
C6571	C657	0.340800	0.159410	0.463410
H4031	H403	0.264200	0.168500	0.463600
C6581	C658	0.299600	0.136600	0.427750
C6591	C659	0.047200	0.062900	0.383480
H4041	H404	0.995000	0.059200	0.394800
C6601	C660	0.050800	0.044600	0.365680
H4051	H405	0.000600	0.026800	0.362000
C6611	C661	0.184700	0.083220	0.364860
H4061	H406	0.246800	0.097000	0.360200
C6621	C662	0.176000	0.044920	0.334200
C6631	C663	0.087900	0.035300	0.320630
H4071	H407	0.008000	0.039100	0.324000
C6641	C664	0.119200	0.019920	0.302030
C6651	C665	0.234100	0.015190	0.296450
H4081	H408	0.254000	0.005000	0.283500
C6661	C666	0.319900	0.025690	0.310180
C6671	C667	0.293500	0.040520	0.329290
H4091	H409	0.353500	0.047400	0.338600
C6681	C668	0.535100	0.039180	0.310980
H4101	H410	0.533200	0.059100	0.318800
C6691	C669	0.630400	0.023810	0.303200
H4111	H411	0.708600	0.031500	0.304600
C6701	C670	0.481700	0.993460	0.294210
H4121	H412	0.434900	0.976400	0.288400
C6711	C671	0.028800	0.006260	0.267070
H4131	H413	0.088500	0.013600	0.257800
C6721	C672	0.926500	0.994860	0.295590
H4141	H414	0.904100	0.993200	0.309900
C6731	C673	0.926100	0.991760	0.261810
H4151	H415	0.901300	0.987200	0.247900
C6741	C674	0.773100	0.929250	0.318390
C6751	C675	0.826200	0.901390	0.330680
C6761	C676	0.828700	0.901650	0.352270
H4161	H416	0.798600	0.920200	0.359600
Zn271	Zn27	0.206420	0.459980	0.281450
O1571	O157	0.941300	0.683160	0.515590
O1581	O158	0.774400	0.693670	0.500310
O1591	O159	0.706100	0.653620	0.426900
O1601	O160	0.822500	0.615200	0.414460
O1611	O161	0.259900	0.456800	0.326620
O1621	O162	0.246400	0.422510	0.299540
N1571	N157	0.628100	0.586980	0.382760
N1581	N158	0.642700	0.557210	0.354040
N1591	N159	0.940000	0.519650	0.305100
N1601	N160	0.096900	0.495050	0.292820
N1611	N161	0.528700	0.508100	0.288750
N1621	N162	0.362700	0.484590	0.279730
C6771	C677	0.875800	0.681440	0.500440
C6781	C678	0.914700	0.663300	0.480620
C6791	C679	0.025400	0.649790	0.480340
H4171	H417	0.074900	0.652200	0.492200
C6801	C680	0.065700	0.632460	0.462770
C6811	C681	0.992700	0.628770	0.445570
H4181	H418	0.019300	0.617100	0.433600
C6821	C682	0.879900	0.642220	0.445970
C6831	C683	0.840800	0.659410	0.463410
H4191	H419	0.764200	0.668500	0.463600
C6841	C684	0.799600	0.636600	0.427750
C6851	C685	0.547200	0.562900	0.383480
H4201	H420	0.495000	0.559200	0.394800
C6861	C686	0.550800	0.544600	0.365680
H4211	H421	0.500600	0.526800	0.362000
C6871	C687	0.684700	0.583220	0.364860
H4221	H422	0.746800	0.597000	0.360200
C6881	C688	0.676000	0.544920	0.334200
C6891	C689	0.587900	0.535300	0.320630
H4231	H423	0.508000	0.539100	0.324000
C6901	C690	0.619200	0.519920	0.302030
C6911	C691	0.734100	0.515190	0.296450
H4241	H424	0.754000	0.505000	0.283500
C6921	C692	0.819900	0.525690	0.310180
C6931	C693	0.793500	0.540520	0.329290
H4251	H425	0.853500	0.547400	0.338600
C6941	C694	0.035100	0.539180	0.310980
H4261	H426	0.033200	0.559100	0.318800
C6951	C695	0.130400	0.523810	0.303200
H4271	H427	0.208600	0.531500	0.304600
C6961	C696	0.981700	0.493460	0.294210
H4281	H428	0.934900	0.476400	0.288400
C6971	C697	0.528800	0.506260	0.267070
H4291	H429	0.588500	0.513600	0.257800
C6981	C698	0.426500	0.494860	0.295590
H4301	H430	0.404100	0.493200	0.309900
C6991	C699	0.426100	0.491760	0.261810
H4311	H431	0.401300	0.487200	0.247900
C7001	C700	0.273100	0.429250	0.318390
C7011	C701	0.326200	0.401390	0.330680
C7021	C702	0.328700	0.401650	0.352270
H4321	H432	0.298600	0.420200	0.359600
Zn281	Zn28	0.206420	0.959980	0.781450
O1631	O163	0.941300	0.183160	0.015590
O1641	O164	0.774400	0.193670	0.000310
O1651	O165	0.706100	0.153620	0.926900
O1661	O166	0.822500	0.115200	0.914460
O1671	O167	0.259900	0.956800	0.826620
O1681	O168	0.246400	0.922510	0.799540
N1631	N163	0.628100	0.086980	0.882760
N1641	N164	0.642700	0.057210	0.854040
N1651	N165	0.940000	0.019650	0.805100
N1661	N166	0.096900	0.995050	0.792820
N1671	N167	0.528700	0.008100	0.788750
N1681	N168	0.362700	0.984590	0.779730
C7031	C703	0.875800	0.181440	0.000440
C7041	C704	0.914700	0.163300	0.980620
C7051	C705	0.025400	0.149790	0.980340
H4331	H433	0.074900	0.152200	0.992200
C7061	C706	0.065700	0.132460	0.962770
C7071	C707	0.992700	0.128770	0.945570
H4341	H434	0.019300	0.117100	0.933600
C7081	C708	0.879900	0.142220	0.945970
C7091	C709	0.840800	0.159410	0.963410
H4351	H435	0.764200	0.168500	0.963600
C7101	C710	0.799600	0.136600	0.927750
C7111	C711	0.547200	0.062900	0.883480
H4361	H436	0.495000	0.059200	0.894800
C7121	C712	0.550800	0.044600	0.865680
H4371	H437	0.500600	0.026800	0.862000
C7131	C713	0.684700	0.083220	0.864860
H4381	H438	0.746800	0.097000	0.860200
C7141	C714	0.676000	0.044920	0.834200
C7151	C715	0.587900	0.035300	0.820630
H4391	H439	0.508000	0.039100	0.824000
C7161	C716	0.619200	0.019920	0.802030
C7171	C717	0.734100	0.015190	0.796450
H4401	H440	0.754000	0.005000	0.783500
C7181	C718	0.819900	0.025690	0.810180
C7191	C719	0.793500	0.040520	0.829290
H4411	H441	0.853500	0.047400	0.838600
C7201	C720	0.035100	0.039180	0.810980
H4421	H442	0.033200	0.059100	0.818800
C7211	C721	0.130400	0.023810	0.803200
H4431	H443	0.208600	0.031500	0.804600
C7221	C722	0.981700	0.993460	0.794210
H4441	H444	0.934900	0.976400	0.788400
C7231	C723	0.528800	0.006260	0.767070
H4451	H445	0.588500	0.013600	0.757800
C7241	C724	0.426500	0.994860	0.795590
H4461	H446	0.404100	0.993200	0.809900
C7251	C725	0.426100	0.991760	0.761810
H4471	H447	0.401300	0.987200	0.747900
C7261	C726	0.273100	0.929250	0.818390
C7271	C727	0.326200	0.901390	0.830680
C7281	C728	0.328700	0.901650	0.852270
H4481	H448	0.298600	0.920200	0.859600
Zn291	Zn29	0.543580	0.790020	0.781450
O1691	O169	0.808700	0.566840	0.015590
O1701	O170	0.975600	0.556330	0.000310
O1711	O171	0.043900	0.596380	0.926900
O1721	O172	0.927500	0.634800	0.914460
O1731	O173	0.490100	0.793200	0.826620
O1741	O174	0.503600	0.827490	0.799540
N1691	N169	0.121900	0.663020	0.882760
N1701	N170	0.107300	0.692790	0.854040
N1711	N171	0.810000	0.730350	0.805100
N1721	N172	0.653100	0.754950	0.792820
N1731	N173	0.221300	0.741900	0.788750
N1741	N174	0.387300	0.765410	0.779730
C7291	C729	0.874200	0.568560	0.000440
C7301	C730	0.835300	0.586700	0.980620
C7311	C731	0.724600	0.600210	0.980340
H4491	H449	0.675100	0.597800	0.992200
C7321	C732	0.684300	0.617540	0.962770
C7331	C733	0.757300	0.621230	0.945570
H4501	H450	0.730700	0.632900	0.933600
C7341	C734	0.870100	0.607780	0.945970
C7351	C735	0.909200	0.590590	0.963410
H4511	H451	0.985800	0.581500	0.963600
C7361	C736	0.950400	0.613400	0.927750
C7371	C737	0.202800	0.687100	0.883480
H4521	H452	0.255000	0.690800	0.894800
C7381	C738	0.199200	0.705400	0.865680
H4531	H453	0.249400	0.723200	0.862000
C7391	C739	0.065300	0.666780	0.864860
H4541	H454	0.003200	0.653000	0.860200
C7401	C740	0.074000	0.705080	0.834200
C7411	C741	0.162100	0.714700	0.820630
H4551	H455	0.242000	0.710900	0.824000
C7421	C742	0.130800	0.730080	0.802030
C7431	C743	0.015900	0.734810	0.796450
H4561	H456	0.996000	0.745000	0.783500
C7441	C744	0.930100	0.724310	0.810180
C7451	C745	0.956500	0.709480	0.829290
H4571	H457	0.896500	0.702600	0.838600
C7461	C746	0.714900	0.710820	0.810980
H4581	H458	0.716800	0.690900	0.818800
C7471	C747	0.619600	0.726190	0.803200
H4591	H459	0.541400	0.718500	0.804600
C7481	C748	0.768300	0.756540	0.794210
H4601	H460	0.815100	0.773600	0.788400
C7491	C749	0.221200	0.743740	0.767070
H4611	H461	0.161500	0.736400	0.757800
C7501	C750	0.323500	0.755140	0.795590
H4621	H462	0.345900	0.756800	0.809900
C7511	C751	0.323900	0.758240	0.761810
H4631	H463	0.348700	0.762800	0.747900
C7521	C752	0.476900	0.820750	0.818390
C7531	C753	0.423800	0.848610	0.830680
C7541	C754	0.421300	0.848350	0.852270
H4641	H464	0.451400	0.829800	0.859600
Zn301	Zn30	0.543580	0.290020	0.281450
O1751	O175	0.808700	0.066840	0.515590
O1761	O176	0.975600	0.056330	0.500310
O1771	O177	0.043900	0.096380	0.426900
O1781	O178	0.927500	0.134800	0.414460
O1791	O179	0.490100	0.293200	0.326620
O1801	O180	0.503600	0.327490	0.299540
N1751	N175	0.121900	0.163020	0.382760
N1761	N176	0.107300	0.192790	0.354040
N1771	N177	0.810000	0.230350	0.305100
N1781	N178	0.653100	0.254950	0.292820
N1791	N179	0.221300	0.241900	0.288750
N1801	N180	0.387300	0.265410	0.279730
C7551	C755	0.874200	0.068560	0.500440
C7561	C756	0.835300	0.086700	0.480620
C7571	C757	0.724600	0.100210	0.480340
H4651	H465	0.675100	0.097800	0.492200
C7581	C758	0.684300	0.117540	0.462770
C7591	C759	0.757300	0.121230	0.445570
H4661	H466	0.730700	0.132900	0.433600
C7601	C760	0.870100	0.107780	0.445970
C7611	C761	0.909200	0.090590	0.463410
H4671	H467	0.985800	0.081500	0.463600
C7621	C762	0.950400	0.113400	0.427750
C7631	C763	0.202800	0.187100	0.383480
H4681	H468	0.255000	0.190800	0.394800
C7641	C764	0.199200	0.205400	0.365680
H4691	H469	0.249400	0.223200	0.362000
C7651	C765	0.065300	0.166780	0.364860
H4701	H470	0.003200	0.153000	0.360200
C7661	C766	0.074000	0.205080	0.334200
C7671	C767	0.162100	0.214700	0.320630
H4711	H471	0.242000	0.210900	0.324000
C7681	C768	0.130800	0.230080	0.302030
C7691	C769	0.015900	0.234810	0.296450
H4721	H472	0.996000	0.245000	0.283500
C7701	C770	0.930100	0.224310	0.310180
C7711	C771	0.956500	0.209480	0.329290
H4731	H473	0.896500	0.202600	0.338600
C7721	C772	0.714900	0.210820	0.310980
H4741	H474	0.716800	0.190900	0.318800
C7731	C773	0.619600	0.226190	0.303200
H4751	H475	0.541400	0.218500	0.304600
C7741	C774	0.768300	0.256540	0.294210
H4761	H476	0.815100	0.273600	0.288400
C7751	C775	0.221200	0.243740	0.267070
H4771	H477	0.161500	0.236400	0.257800
C7761	C776	0.323500	0.255140	0.295590
H4781	H478	0.345900	0.256800	0.309900
C7771	C777	0.323900	0.258240	0.261810
H4791	H479	0.348700	0.262800	0.247900
C7781	C778	0.476900	0.320750	0.318390
C7791	C779	0.423800	0.348610	0.330680
C7801	C780	0.421300	0.348350	0.352270
H4801	H480	0.451400	0.329800	0.359600
Zn311	Zn31	0.043580	0.790020	0.281450
O1811	O181	0.308700	0.566840	0.515590
O1821	O182	0.475600	0.556330	0.500310
O1831	O183	0.543900	0.596380	0.426900
O1841	O184	0.427500	0.634800	0.414460
O1851	O185	0.990100	0.793200	0.326620
O1861	O186	0.003600	0.827490	0.299540
N1811	N181	0.621900	0.663020	0.382760
N1821	N182	0.607300	0.692790	0.354040
N1831	N183	0.310000	0.730350	0.305100
N1841	N184	0.153100	0.754950	0.292820
N1851	N185	0.721300	0.741900	0.288750
N1861	N186	0.887300	0.765410	0.279730
C7811	C781	0.374200	0.568560	0.500440
C7821	C782	0.335300	0.586700	0.480620
C7831	C783	0.224600	0.600210	0.480340
H4811	H481	0.175100	0.597800	0.492200
C7841	C784	0.184300	0.617540	0.462770
C7851	C785	0.257300	0.621230	0.445570
H4821	H482	0.230700	0.632900	0.433600
C7861	C786	0.370100	0.607780	0.445970
C7871	C787	0.409200	0.590590	0.463410
H4831	H483	0.485800	0.581500	0.463600
C7881	C788	0.450400	0.613400	0.427750
C7891	C789	0.702800	0.687100	0.383480
H4841	H484	0.755000	0.690800	0.394800
C7901	C790	0.699200	0.705400	0.365680
H4851	H485	0.749400	0.723200	0.362000
C7911	C791	0.565300	0.666780	0.364860
H4861	H486	0.503200	0.653000	0.360200
C7921	C792	0.574000	0.705080	0.334200
C7931	C793	0.662100	0.714700	0.320630
H4871	H487	0.742000	0.710900	0.324000
C7941	C794	0.630800	0.730080	0.302030
C7951	C795	0.515900	0.734810	0.296450
H4881	H488	0.496000	0.745000	0.283500
C7961	C796	0.430100	0.724310	0.310180
C7971	C797	0.456500	0.709480	0.329290
H4891	H489	0.396500	0.702600	0.338600
C7981	C798	0.214900	0.710820	0.310980
H4901	H490	0.216800	0.690900	0.318800
C7991	C799	0.119600	0.726190	0.303200
H4911	H491	0.041400	0.718500	0.304600
C8001	C800	0.268300	0.756540	0.294210
H4921	H492	0.315100	0.773600	0.288400
C8011	C801	0.721200	0.743740	0.267070
H4931	H493	0.661500	0.736400	0.257800
C8021	C802	0.823500	0.755140	0.295590
H4941	H494	0.845900	0.756800	0.309900
C8031	C803	0.823900	0.758240	0.261810
H4951	H495	0.848700	0.762800	0.247900
C8041	C804	0.976900	0.820750	0.318390
C8051	C805	0.923800	0.848610	0.330680
C8061	C806	0.921300	0.848350	0.352270
H4961	H496	0.951400	0.829800	0.359600
Zn321	Zn32	0.043580	0.290020	0.781450
O1871	O187	0.308700	0.066840	0.015590
O1881	O188	0.475600	0.056330	0.000310
O1891	O189	0.543900	0.096380	0.926900
O1901	O190	0.427500	0.134800	0.914460
O1911	O191	0.990100	0.293200	0.826620
O1921	O192	0.003600	0.327490	0.799540
N1871	N187	0.621900	0.163020	0.882760
N1881	N188	0.607300	0.192790	0.854040
N1891	N189	0.310000	0.230350	0.805100
N1901	N190	0.153100	0.254950	0.792820
N1911	N191	0.721300	0.241900	0.788750
N1921	N192	0.887300	0.265410	0.779730
C8071	C807	0.374200	0.068560	0.000440
C8081	C808	0.335300	0.086700	0.980620
C8091	C809	0.224600	0.100210	0.980340
H4971	H497	0.175100	0.097800	0.992200
C8101	C810	0.184300	0.117540	0.962770
C8111	C811	0.257300	0.121230	0.945570
H4981	H498	0.230700	0.132900	0.933600
C8121	C812	0.370100	0.107780	0.945970
C8131	C813	0.409200	0.090590	0.963410
H4991	H499	0.485800	0.081500	0.963600
C8141	C814	0.450400	0.113400	0.927750
C8151	C815	0.702800	0.187100	0.883480
H5001	H500	0.755000	0.190800	0.894800
C8161	C816	0.699200	0.205400	0.865680
H5011	H501	0.749400	0.223200	0.862000
C8171	C817	0.565300	0.166780	0.864860
H5021	H502	0.503200	0.153000	0.860200
C8181	C818	0.574000	0.205080	0.834200
C8191	C819	0.662100	0.214700	0.820630
H5031	H503	0.742000	0.210900	0.824000
C8201	C820	0.630800	0.230080	0.802030
C8211	C821	0.515900	0.234810	0.796450
H5041	H504	0.496000	0.245000	0.783500
C8221	C822	0.430100	0.224310	0.810180
C8231	C823	0.456500	0.209480	0.829290
H5051	H505	0.396500	0.202600	0.838600
C8241	C824	0.214900	0.210820	0.810980
H5061	H506	0.216800	0.190900	0.818800
C8251	C825	0.119600	0.226190	0.803200
H5071	H507	0.041400	0.218500	0.804600
C8261	C826	0.268300	0.256540	0.794210
H5081	H508	0.315100	0.273600	0.788400
C8271	C827	0.721200	0.243740	0.767070
H5091	H509	0.661500	0.236400	0.757800
C8281	C828	0.823500	0.255140	0.795590
H5101	H510	0.845900	0.256800	0.809900
C8291	C829	0.823900	0.258240	0.761810
H5111	H511	0.848700	0.262800	0.747900
C8301	C830	0.976900	0.320750	0.818390
C8311	C831	0.923800	0.348610	0.830680
C8321	C832	0.921300	0.348350	0.852270
H5121	H512	0.951400	0.329800	0.859600
Zn331	Zn33	0.875000	0.375000	0.653400
Zn341	Zn34	0.875000	0.875000	0.153400
Zn351	Zn35	0.375000	0.375000	0.153400
Zn361	Zn36	0.375000	0.875000	0.653400
Zn371	Zn37	0.875000	0.375000	0.096600
Zn381	Zn38	0.875000	0.875000	0.596600
Zn391	Zn39	0.375000	0.375000	0.596600
Zn401	Zn40	0.375000	0.875000	0.096600
Zn411	Zn41	0.125000	0.625000	0.346600
Zn421	Zn42	0.125000	0.125000	0.846600
Zn431	Zn43	0.625000	0.625000	0.846600
Zn441	Zn44	0.625000	0.125000	0.346600
Zn451	Zn45	0.125000	0.625000	0.903400
Zn461	Zn46	0.125000	0.125000	0.403400
Zn471	Zn47	0.625000	0.625000	0.403400
Zn481	Zn48	0.625000	0.125000	0.903400
C8331	C833	0.625000	0.625000	0.569720
C8341	C834	0.625000	0.625000	0.613390
C8351	C835	0.625000	0.125000	0.069720
C8361	C836	0.625000	0.125000	0.113390
C8371	C837	0.125000	0.125000	0.569720
C8381	C838	0.125000	0.125000	0.613390
C8391	C839	0.125000	0.625000	0.069720
C8401	C840	0.125000	0.625000	0.113390
C8411	C841	0.125000	0.625000	0.180280
C8421	C842	0.125000	0.625000	0.136610
C8431	C843	0.125000	0.125000	0.680280
C8441	C844	0.125000	0.125000	0.636610
C8451	C845	0.625000	0.625000	0.680280
C8461	C846	0.625000	0.625000	0.636610
C8471	C847	0.625000	0.125000	0.180280
C8481	C848	0.625000	0.125000	0.136610
C8491	C849	0.375000	0.375000	0.430280
C8501	C850	0.375000	0.375000	0.386610
C8511	C851	0.375000	0.875000	0.930280
C8521	C852	0.375000	0.875000	0.886610
C8531	C853	0.875000	0.875000	0.430280
C8541	C854	0.875000	0.875000	0.386610
C8551	C855	0.875000	0.375000	0.930280
C8561	C856	0.875000	0.375000	0.886610
C8571	C857	0.875000	0.375000	0.819720
C8581	C858	0.875000	0.375000	0.863390
C8591	C859	0.875000	0.875000	0.319720
C8601	C860	0.875000	0.875000	0.363390
C8611	C861	0.375000	0.875000	0.819720
C8621	C862	0.375000	0.875000	0.863390
C8631	C863	0.375000	0.375000	0.319720
C8641	C864	0.375000	0.375000	0.363390
