data_ZUCKIT_clean_PM
_symmetry_space_group_name_H-M	'P1'
_cell_length_a	51.550000
_cell_length_b	51.550000
_cell_length_c	51.550000
_cell_angle_alpha	90.000000
_cell_angle_beta	90.000000
_cell_angle_gamma	90.000000
_symmetry_Int_Tables_number 1

loop_
_symmetry_equiv_pos_as_xyz
'x,y,z'

loop_
_atom_site_label
_atom_site_type_symbol
_atom_site_fract_x
_atom_site_fract_y
_atom_site_fract_z
O11	O1	0.264280	0.529960	0.183840
O21	O2	0.297600	0.528400	0.209900
C11	C1	0.287250	0.536260	0.192470
C21	C2	0.293290	0.563960	0.183430
C31	C3	0.315330	0.571550	0.189210
H11	H1	0.327800	0.559800	0.196100
C41	C4	0.322510	0.600950	0.185080
C51	C5	0.349960	0.612390	0.194860
C61	C6	0.350300	0.632050	0.171790
C71	C7	0.331570	0.632960	0.151430
C81	C8	0.314810	0.609430	0.161460
C91	C9	0.289440	0.601040	0.143960
H21	H2	0.282100	0.609500	0.129300
C101	C10	0.341340	0.622680	0.218110
H31	H3	0.341700	0.609200	0.231500
H41	H4	0.323600	0.629100	0.216000
H51	H5	0.352700	0.637100	0.223300
C111	C11	0.372150	0.591360	0.189380
H61	H6	0.373500	0.588300	0.170700
H71	H7	0.367800	0.575100	0.198200
H81	H8	0.388800	0.597800	0.195900
C121	C12	0.279920	0.573870	0.158790
H91	H9	0.265800	0.564300	0.151800
O31	O3	0.264280	0.029960	0.683840
O41	O4	0.297600	0.028400	0.709900
C131	C13	0.287250	0.036260	0.692470
C141	C14	0.293290	0.063960	0.683430
C151	C15	0.315330	0.071550	0.689210
H101	H10	0.327800	0.059800	0.696100
C161	C16	0.322510	0.100950	0.685080
C171	C17	0.349960	0.112390	0.694860
C181	C18	0.350300	0.132050	0.671790
C191	C19	0.331570	0.132960	0.651430
C201	C20	0.314810	0.109430	0.661460
C211	C21	0.289440	0.101040	0.643960
H111	H11	0.282100	0.109500	0.629300
C221	C22	0.341340	0.122680	0.718110
H121	H12	0.341700	0.109200	0.731500
H131	H13	0.323600	0.129100	0.716000
H141	H14	0.352700	0.137100	0.723300
C231	C23	0.372150	0.091360	0.689380
H151	H15	0.373500	0.088300	0.670700
H161	H16	0.367800	0.075100	0.698200
H171	H17	0.388800	0.097800	0.695900
C241	C24	0.279920	0.073870	0.658790
H181	H18	0.265800	0.064300	0.651800
O51	O5	0.764280	0.529960	0.683840
O61	O6	0.797600	0.528400	0.709900
C251	C25	0.787250	0.536260	0.692470
C261	C26	0.793290	0.563960	0.683430
C271	C27	0.815330	0.571550	0.689210
H191	H19	0.827800	0.559800	0.696100
C281	C28	0.822510	0.600950	0.685080
C291	C29	0.849960	0.612390	0.694860
C301	C30	0.850300	0.632050	0.671790
C311	C31	0.831570	0.632960	0.651430
C321	C32	0.814810	0.609430	0.661460
C331	C33	0.789440	0.601040	0.643960
H201	H20	0.782100	0.609500	0.629300
C341	C34	0.841340	0.622680	0.718110
H211	H21	0.841700	0.609200	0.731500
H221	H22	0.823600	0.629100	0.716000
H231	H23	0.852700	0.637100	0.723300
C351	C35	0.872150	0.591360	0.689380
H241	H24	0.873500	0.588300	0.670700
H251	H25	0.867800	0.575100	0.698200
H261	H26	0.888800	0.597800	0.695900
C361	C36	0.779920	0.573870	0.658790
H271	H27	0.765800	0.564300	0.651800
O71	O7	0.764280	0.029960	0.183840
O81	O8	0.797600	0.028400	0.209900
C371	C37	0.787250	0.036260	0.192470
C381	C38	0.793290	0.063960	0.183430
C391	C39	0.815330	0.071550	0.189210
H281	H28	0.827800	0.059800	0.196100
C401	C40	0.822510	0.100950	0.185080
C411	C41	0.849960	0.112390	0.194860
C421	C42	0.850300	0.132050	0.171790
C431	C43	0.831570	0.132960	0.151430
C441	C44	0.814810	0.109430	0.161460
C451	C45	0.789440	0.101040	0.143960
H291	H29	0.782100	0.109500	0.129300
C461	C46	0.841340	0.122680	0.218110
H301	H30	0.841700	0.109200	0.231500
H311	H31	0.823600	0.129100	0.216000
H321	H32	0.852700	0.137100	0.223300
C471	C47	0.872150	0.091360	0.189380
H331	H33	0.873500	0.088300	0.170700
H341	H34	0.867800	0.075100	0.198200
H351	H35	0.888800	0.097800	0.195900
C481	C48	0.779920	0.073870	0.158790
H361	H36	0.765800	0.064300	0.151800
O91	O9	0.735720	0.470040	0.183840
O101	O10	0.702400	0.471600	0.209900
C491	C49	0.712750	0.463740	0.192470
C501	C50	0.706710	0.436040	0.183430
C511	C51	0.684670	0.428450	0.189210
H371	H37	0.672200	0.440200	0.196100
C521	C52	0.677490	0.399050	0.185080
C531	C53	0.650040	0.387610	0.194860
C541	C54	0.649700	0.367950	0.171790
C551	C55	0.668430	0.367040	0.151430
C561	C56	0.685190	0.390570	0.161460
C571	C57	0.710560	0.398960	0.143960
H381	H38	0.717900	0.390500	0.129300
C581	C58	0.658660	0.377320	0.218110
H391	H39	0.658300	0.390800	0.231500
H401	H40	0.676400	0.370900	0.216000
H411	H41	0.647300	0.362900	0.223300
C591	C59	0.627850	0.408640	0.189380
H421	H42	0.626500	0.411700	0.170700
H431	H43	0.632200	0.424900	0.198200
H441	H44	0.611200	0.402200	0.195900
C601	C60	0.720080	0.426130	0.158790
H451	H45	0.734200	0.435700	0.151800
O111	O11	0.735720	0.970040	0.683840
O121	O12	0.702400	0.971600	0.709900
C611	C61	0.712750	0.963740	0.692470
C621	C62	0.706710	0.936040	0.683430
C631	C63	0.684670	0.928450	0.689210
H461	H46	0.672200	0.940200	0.696100
C641	C64	0.677490	0.899050	0.685080
C651	C65	0.650040	0.887610	0.694860
C661	C66	0.649700	0.867950	0.671790
C671	C67	0.668430	0.867040	0.651430
C681	C68	0.685190	0.890570	0.661460
C691	C69	0.710560	0.898960	0.643960
H471	H47	0.717900	0.890500	0.629300
C701	C70	0.658660	0.877320	0.718110
H481	H48	0.658300	0.890800	0.731500
H491	H49	0.676400	0.870900	0.716000
H501	H50	0.647300	0.862900	0.723300
C711	C71	0.627850	0.908640	0.689380
H511	H51	0.626500	0.911700	0.670700
H521	H52	0.632200	0.924900	0.698200
H531	H53	0.611200	0.902200	0.695900
C721	C72	0.720080	0.926130	0.658790
H541	H54	0.734200	0.935700	0.651800
O131	O13	0.235720	0.470040	0.683840
O141	O14	0.202400	0.471600	0.709900
C731	C73	0.212750	0.463740	0.692470
C741	C74	0.206710	0.436040	0.683430
C751	C75	0.184670	0.428450	0.689210
H551	H55	0.172200	0.440200	0.696100
C761	C76	0.177490	0.399050	0.685080
C771	C77	0.150040	0.387610	0.694860
C781	C78	0.149700	0.367950	0.671790
C791	C79	0.168430	0.367040	0.651430
C801	C80	0.185190	0.390570	0.661460
C811	C81	0.210560	0.398960	0.643960
H561	H56	0.217900	0.390500	0.629300
C821	C82	0.158660	0.377320	0.718110
H571	H57	0.158300	0.390800	0.731500
H581	H58	0.176400	0.370900	0.716000
H591	H59	0.147300	0.362900	0.723300
C831	C83	0.127850	0.408640	0.689380
H601	H60	0.126500	0.411700	0.670700
H611	H61	0.132200	0.424900	0.698200
H621	H62	0.111200	0.402200	0.695900
C841	C84	0.220080	0.426130	0.658790
H631	H63	0.234200	0.435700	0.651800
O151	O15	0.235720	0.970040	0.183840
O161	O16	0.202400	0.971600	0.209900
C851	C85	0.212750	0.963740	0.192470
C861	C86	0.206710	0.936040	0.183430
C871	C87	0.184670	0.928450	0.189210
H641	H64	0.172200	0.940200	0.196100
C881	C88	0.177490	0.899050	0.185080
C891	C89	0.150040	0.887610	0.194860
C901	C90	0.149700	0.867950	0.171790
C911	C91	0.168430	0.867040	0.151430
C921	C92	0.185190	0.890570	0.161460
C931	C93	0.210560	0.898960	0.143960
H651	H65	0.217900	0.890500	0.129300
C941	C94	0.158660	0.877320	0.218110
H661	H66	0.158300	0.890800	0.231500
H671	H67	0.176400	0.870900	0.216000
H681	H68	0.147300	0.862900	0.223300
C951	C95	0.127850	0.908640	0.189380
H691	H69	0.126500	0.911700	0.170700
H701	H70	0.132200	0.924900	0.198200
H711	H71	0.111200	0.902200	0.195900
C961	C96	0.220080	0.926130	0.158790
H721	H72	0.234200	0.935700	0.151800
O171	O17	0.735720	0.529960	0.816160
O181	O18	0.702400	0.528400	0.790100
C971	C97	0.712750	0.536260	0.807530
C981	C98	0.706710	0.563960	0.816570
C991	C99	0.684670	0.571550	0.810790
H731	H73	0.672200	0.559800	0.803900
C1001	C100	0.677490	0.600950	0.814920
C1011	C101	0.650040	0.612390	0.805140
C1021	C102	0.649700	0.632050	0.828210
C1031	C103	0.668430	0.632960	0.848570
C1041	C104	0.685190	0.609430	0.838540
C1051	C105	0.710560	0.601040	0.856040
H741	H74	0.717900	0.609500	0.870700
C1061	C106	0.658660	0.622680	0.781890
H751	H75	0.658300	0.609200	0.768500
H761	H76	0.676400	0.629100	0.784000
H771	H77	0.647300	0.637100	0.776700
C1071	C107	0.627850	0.591360	0.810620
H781	H78	0.626500	0.588300	0.829300
H791	H79	0.632200	0.575100	0.801800
H801	H80	0.611200	0.597800	0.804100
C1081	C108	0.720080	0.573870	0.841210
H811	H81	0.734200	0.564300	0.848200
O191	O19	0.735720	0.029960	0.316160
O201	O20	0.702400	0.028400	0.290100
C1091	C109	0.712750	0.036260	0.307530
C1101	C110	0.706710	0.063960	0.316570
C1111	C111	0.684670	0.071550	0.310790
H821	H82	0.672200	0.059800	0.303900
C1121	C112	0.677490	0.100950	0.314920
C1131	C113	0.650040	0.112390	0.305140
C1141	C114	0.649700	0.132050	0.328210
C1151	C115	0.668430	0.132960	0.348570
C1161	C116	0.685190	0.109430	0.338540
C1171	C117	0.710560	0.101040	0.356040
H831	H83	0.717900	0.109500	0.370700
C1181	C118	0.658660	0.122680	0.281890
H841	H84	0.658300	0.109200	0.268500
H851	H85	0.676400	0.129100	0.284000
H861	H86	0.647300	0.137100	0.276700
C1191	C119	0.627850	0.091360	0.310620
H871	H87	0.626500	0.088300	0.329300
H881	H88	0.632200	0.075100	0.301800
H891	H89	0.611200	0.097800	0.304100
C1201	C120	0.720080	0.073870	0.341210
H901	H90	0.734200	0.064300	0.348200
O211	O21	0.235720	0.529960	0.316160
O221	O22	0.202400	0.528400	0.290100
C1211	C121	0.212750	0.536260	0.307530
C1221	C122	0.206710	0.563960	0.316570
C1231	C123	0.184670	0.571550	0.310790
H911	H91	0.172200	0.559800	0.303900
C1241	C124	0.177490	0.600950	0.314920
C1251	C125	0.150040	0.612390	0.305140
C1261	C126	0.149700	0.632050	0.328210
C1271	C127	0.168430	0.632960	0.348570
C1281	C128	0.185190	0.609430	0.338540
C1291	C129	0.210560	0.601040	0.356040
H921	H92	0.217900	0.609500	0.370700
C1301	C130	0.158660	0.622680	0.281890
H931	H93	0.158300	0.609200	0.268500
H941	H94	0.176400	0.629100	0.284000
H951	H95	0.147300	0.637100	0.276700
C1311	C131	0.127850	0.591360	0.310620
H961	H96	0.126500	0.588300	0.329300
H971	H97	0.132200	0.575100	0.301800
H981	H98	0.111200	0.597800	0.304100
C1321	C132	0.220080	0.573870	0.341210
H991	H99	0.234200	0.564300	0.348200
O231	O23	0.235720	0.029960	0.816160
O241	O24	0.202400	0.028400	0.790100
C1331	C133	0.212750	0.036260	0.807530
C1341	C134	0.206710	0.063960	0.816570
C1351	C135	0.184670	0.071550	0.810790
H1001	H100	0.172200	0.059800	0.803900
C1361	C136	0.177490	0.100950	0.814920
C1371	C137	0.150040	0.112390	0.805140
C1381	C138	0.149700	0.132050	0.828210
C1391	C139	0.168430	0.132960	0.848570
C1401	C140	0.185190	0.109430	0.838540
C1411	C141	0.210560	0.101040	0.856040
H1011	H101	0.217900	0.109500	0.870700
C1421	C142	0.158660	0.122680	0.781890
H1021	H102	0.158300	0.109200	0.768500
H1031	H103	0.176400	0.129100	0.784000
H1041	H104	0.147300	0.137100	0.776700
C1431	C143	0.127850	0.091360	0.810620
H1051	H105	0.126500	0.088300	0.829300
H1061	H106	0.132200	0.075100	0.801800
H1071	H107	0.111200	0.097800	0.804100
C1441	C144	0.220080	0.073870	0.841210
H1081	H108	0.234200	0.064300	0.848200
O251	O25	0.264280	0.470040	0.816160
O261	O26	0.297600	0.471600	0.790100
C1451	C145	0.287250	0.463740	0.807530
C1461	C146	0.293290	0.436040	0.816570
C1471	C147	0.315330	0.428450	0.810790
H1091	H109	0.327800	0.440200	0.803900
C1481	C148	0.322510	0.399050	0.814920
C1491	C149	0.349960	0.387610	0.805140
C1501	C150	0.350300	0.367950	0.828210
C1511	C151	0.331570	0.367040	0.848570
C1521	C152	0.314810	0.390570	0.838540
C1531	C153	0.289440	0.398960	0.856040
H1101	H110	0.282100	0.390500	0.870700
C1541	C154	0.341340	0.377320	0.781890
H1111	H111	0.341700	0.390800	0.768500
H1121	H112	0.323600	0.370900	0.784000
H1131	H113	0.352700	0.362900	0.776700
C1551	C155	0.372150	0.408640	0.810620
H1141	H114	0.373500	0.411700	0.829300
H1151	H115	0.367800	0.424900	0.801800
H1161	H116	0.388800	0.402200	0.804100
C1561	C156	0.279920	0.426130	0.841210
H1171	H117	0.265800	0.435700	0.848200
O271	O27	0.264280	0.970040	0.316160
O281	O28	0.297600	0.971600	0.290100
C1571	C157	0.287250	0.963740	0.307530
C1581	C158	0.293290	0.936040	0.316570
C1591	C159	0.315330	0.928450	0.310790
H1181	H118	0.327800	0.940200	0.303900
C1601	C160	0.322510	0.899050	0.314920
C1611	C161	0.349960	0.887610	0.305140
C1621	C162	0.350300	0.867950	0.328210
C1631	C163	0.331570	0.867040	0.348570
C1641	C164	0.314810	0.890570	0.338540
C1651	C165	0.289440	0.898960	0.356040
H1191	H119	0.282100	0.890500	0.370700
C1661	C166	0.341340	0.877320	0.281890
H1201	H120	0.341700	0.890800	0.268500
H1211	H121	0.323600	0.870900	0.284000
H1221	H122	0.352700	0.862900	0.276700
C1671	C167	0.372150	0.908640	0.310620
H1231	H123	0.373500	0.911700	0.329300
H1241	H124	0.367800	0.924900	0.301800
H1251	H125	0.388800	0.902200	0.304100
C1681	C168	0.279920	0.926130	0.341210
H1261	H126	0.265800	0.935700	0.348200
O291	O29	0.764280	0.470040	0.316160
O301	O30	0.797600	0.471600	0.290100
C1691	C169	0.787250	0.463740	0.307530
C1701	C170	0.793290	0.436040	0.316570
C1711	C171	0.815330	0.428450	0.310790
H1271	H127	0.827800	0.440200	0.303900
C1721	C172	0.822510	0.399050	0.314920
C1731	C173	0.849960	0.387610	0.305140
C1741	C174	0.850300	0.367950	0.328210
C1751	C175	0.831570	0.367040	0.348570
C1761	C176	0.814810	0.390570	0.338540
C1771	C177	0.789440	0.398960	0.356040
H1281	H128	0.782100	0.390500	0.370700
C1781	C178	0.841340	0.377320	0.281890
H1291	H129	0.841700	0.390800	0.268500
H1301	H130	0.823600	0.370900	0.284000
H1311	H131	0.852700	0.362900	0.276700
C1791	C179	0.872150	0.408640	0.310620
H1321	H132	0.873500	0.411700	0.329300
H1331	H133	0.867800	0.424900	0.301800
H1341	H134	0.888800	0.402200	0.304100
C1801	C180	0.779920	0.426130	0.341210
H1351	H135	0.765800	0.435700	0.348200
O311	O31	0.764280	0.970040	0.816160
O321	O32	0.797600	0.971600	0.790100
C1811	C181	0.787250	0.963740	0.807530
C1821	C182	0.793290	0.936040	0.816570
C1831	C183	0.815330	0.928450	0.810790
H1361	H136	0.827800	0.940200	0.803900
C1841	C184	0.822510	0.899050	0.814920
C1851	C185	0.849960	0.887610	0.805140
C1861	C186	0.850300	0.867950	0.828210
C1871	C187	0.831570	0.867040	0.848570
C1881	C188	0.814810	0.890570	0.838540
C1891	C189	0.789440	0.898960	0.856040
H1371	H137	0.782100	0.890500	0.870700
C1901	C190	0.841340	0.877320	0.781890
H1381	H138	0.841700	0.890800	0.768500
H1391	H139	0.823600	0.870900	0.784000
H1401	H140	0.852700	0.862900	0.776700
C1911	C191	0.872150	0.908640	0.810620
H1411	H141	0.873500	0.911700	0.829300
H1421	H142	0.867800	0.924900	0.801800
H1431	H143	0.888800	0.902200	0.804100
C1921	C192	0.779920	0.926130	0.841210
H1441	H144	0.765800	0.935700	0.848200
O331	O33	0.183840	0.264280	0.529960
O341	O34	0.209900	0.297600	0.528400
C1931	C193	0.192470	0.287250	0.536260
C1941	C194	0.183430	0.293290	0.563960
C1951	C195	0.189210	0.315330	0.571550
H1451	H145	0.196100	0.327800	0.559800
C1961	C196	0.185080	0.322510	0.600950
C1971	C197	0.194860	0.349960	0.612390
C1981	C198	0.171790	0.350300	0.632050
C1991	C199	0.151430	0.331570	0.632960
C2001	C200	0.161460	0.314810	0.609430
C2011	C201	0.143960	0.289440	0.601040
H1461	H146	0.129300	0.282100	0.609500
C2021	C202	0.218110	0.341340	0.622680
H1471	H147	0.231500	0.341700	0.609200
H1481	H148	0.216000	0.323600	0.629100
H1491	H149	0.223300	0.352700	0.637100
C2031	C203	0.189380	0.372150	0.591360
H1501	H150	0.170700	0.373500	0.588300
H1511	H151	0.198200	0.367800	0.575100
H1521	H152	0.195900	0.388800	0.597800
C2041	C204	0.158790	0.279920	0.573870
H1531	H153	0.151800	0.265800	0.564300
O351	O35	0.183840	0.764280	0.029960
O361	O36	0.209900	0.797600	0.028400
C2051	C205	0.192470	0.787250	0.036260
C2061	C206	0.183430	0.793290	0.063960
C2071	C207	0.189210	0.815330	0.071550
H1541	H154	0.196100	0.827800	0.059800
C2081	C208	0.185080	0.822510	0.100950
C2091	C209	0.194860	0.849960	0.112390
C2101	C210	0.171790	0.850300	0.132050
C2111	C211	0.151430	0.831570	0.132960
C2121	C212	0.161460	0.814810	0.109430
C2131	C213	0.143960	0.789440	0.101040
H1551	H155	0.129300	0.782100	0.109500
C2141	C214	0.218110	0.841340	0.122680
H1561	H156	0.231500	0.841700	0.109200
H1571	H157	0.216000	0.823600	0.129100
H1581	H158	0.223300	0.852700	0.137100
C2151	C215	0.189380	0.872150	0.091360
H1591	H159	0.170700	0.873500	0.088300
H1601	H160	0.198200	0.867800	0.075100
H1611	H161	0.195900	0.888800	0.097800
C2161	C216	0.158790	0.779920	0.073870
H1621	H162	0.151800	0.765800	0.064300
O371	O37	0.683840	0.264280	0.029960
O381	O38	0.709900	0.297600	0.028400
C2171	C217	0.692470	0.287250	0.036260
C2181	C218	0.683430	0.293290	0.063960
C2191	C219	0.689210	0.315330	0.071550
H1631	H163	0.696100	0.327800	0.059800
C2201	C220	0.685080	0.322510	0.100950
C2211	C221	0.694860	0.349960	0.112390
C2221	C222	0.671790	0.350300	0.132050
C2231	C223	0.651430	0.331570	0.132960
C2241	C224	0.661460	0.314810	0.109430
C2251	C225	0.643960	0.289440	0.101040
H1641	H164	0.629300	0.282100	0.109500
C2261	C226	0.718110	0.341340	0.122680
H1651	H165	0.731500	0.341700	0.109200
H1661	H166	0.716000	0.323600	0.129100
H1671	H167	0.723300	0.352700	0.137100
C2271	C227	0.689380	0.372150	0.091360
H1681	H168	0.670700	0.373500	0.088300
H1691	H169	0.698200	0.367800	0.075100
H1701	H170	0.695900	0.388800	0.097800
C2281	C228	0.658790	0.279920	0.073870
H1711	H171	0.651800	0.265800	0.064300
O391	O39	0.683840	0.764280	0.529960
O401	O40	0.709900	0.797600	0.528400
C2291	C229	0.692470	0.787250	0.536260
C2301	C230	0.683430	0.793290	0.563960
C2311	C231	0.689210	0.815330	0.571550
H1721	H172	0.696100	0.827800	0.559800
C2321	C232	0.685080	0.822510	0.600950
C2331	C233	0.694860	0.849960	0.612390
C2341	C234	0.671790	0.850300	0.632050
C2351	C235	0.651430	0.831570	0.632960
C2361	C236	0.661460	0.814810	0.609430
C2371	C237	0.643960	0.789440	0.601040
H1731	H173	0.629300	0.782100	0.609500
C2381	C238	0.718110	0.841340	0.622680
H1741	H174	0.731500	0.841700	0.609200
H1751	H175	0.716000	0.823600	0.629100
H1761	H176	0.723300	0.852700	0.637100
C2391	C239	0.689380	0.872150	0.591360
H1771	H177	0.670700	0.873500	0.588300
H1781	H178	0.698200	0.867800	0.575100
H1791	H179	0.695900	0.888800	0.597800
C2401	C240	0.658790	0.779920	0.573870
H1801	H180	0.651800	0.765800	0.564300
O411	O41	0.183840	0.735720	0.470040
O421	O42	0.209900	0.702400	0.471600
C2411	C241	0.192470	0.712750	0.463740
C2421	C242	0.183430	0.706710	0.436040
C2431	C243	0.189210	0.684670	0.428450
H1811	H181	0.196100	0.672200	0.440200
C2441	C244	0.185080	0.677490	0.399050
C2451	C245	0.194860	0.650040	0.387610
C2461	C246	0.171790	0.649700	0.367950
C2471	C247	0.151430	0.668430	0.367040
C2481	C248	0.161460	0.685190	0.390570
C2491	C249	0.143960	0.710560	0.398960
H1821	H182	0.129300	0.717900	0.390500
C2501	C250	0.218110	0.658660	0.377320
H1831	H183	0.231500	0.658300	0.390800
H1841	H184	0.216000	0.676400	0.370900
H1851	H185	0.223300	0.647300	0.362900
C2511	C251	0.189380	0.627850	0.408640
H1861	H186	0.170700	0.626500	0.411700
H1871	H187	0.198200	0.632200	0.424900
H1881	H188	0.195900	0.611200	0.402200
C2521	C252	0.158790	0.720080	0.426130
H1891	H189	0.151800	0.734200	0.435700
O431	O43	0.183840	0.235720	0.970040
O441	O44	0.209900	0.202400	0.971600
C2531	C253	0.192470	0.212750	0.963740
C2541	C254	0.183430	0.206710	0.936040
C2551	C255	0.189210	0.184670	0.928450
H1901	H190	0.196100	0.172200	0.940200
C2561	C256	0.185080	0.177490	0.899050
C2571	C257	0.194860	0.150040	0.887610
C2581	C258	0.171790	0.149700	0.867950
C2591	C259	0.151430	0.168430	0.867040
C2601	C260	0.161460	0.185190	0.890570
C2611	C261	0.143960	0.210560	0.898960
H1911	H191	0.129300	0.217900	0.890500
C2621	C262	0.218110	0.158660	0.877320
H1921	H192	0.231500	0.158300	0.890800
H1931	H193	0.216000	0.176400	0.870900
H1941	H194	0.223300	0.147300	0.862900
C2631	C263	0.189380	0.127850	0.908640
H1951	H195	0.170700	0.126500	0.911700
H1961	H196	0.198200	0.132200	0.924900
H1971	H197	0.195900	0.111200	0.902200
C2641	C264	0.158790	0.220080	0.926130
H1981	H198	0.151800	0.234200	0.935700
O451	O45	0.683840	0.735720	0.970040
O461	O46	0.709900	0.702400	0.971600
C2651	C265	0.692470	0.712750	0.963740
C2661	C266	0.683430	0.706710	0.936040
C2671	C267	0.689210	0.684670	0.928450
H1991	H199	0.696100	0.672200	0.940200
C2681	C268	0.685080	0.677490	0.899050
C2691	C269	0.694860	0.650040	0.887610
C2701	C270	0.671790	0.649700	0.867950
C2711	C271	0.651430	0.668430	0.867040
C2721	C272	0.661460	0.685190	0.890570
C2731	C273	0.643960	0.710560	0.898960
H2001	H200	0.629300	0.717900	0.890500
C2741	C274	0.718110	0.658660	0.877320
H2011	H201	0.731500	0.658300	0.890800
H2021	H202	0.716000	0.676400	0.870900
H2031	H203	0.723300	0.647300	0.862900
C2751	C275	0.689380	0.627850	0.908640
H2041	H204	0.670700	0.626500	0.911700
H2051	H205	0.698200	0.632200	0.924900
H2061	H206	0.695900	0.611200	0.902200
C2761	C276	0.658790	0.720080	0.926130
H2071	H207	0.651800	0.734200	0.935700
O471	O47	0.683840	0.235720	0.470040
O481	O48	0.709900	0.202400	0.471600
C2771	C277	0.692470	0.212750	0.463740
C2781	C278	0.683430	0.206710	0.436040
C2791	C279	0.689210	0.184670	0.428450
H2081	H208	0.696100	0.172200	0.440200
C2801	C280	0.685080	0.177490	0.399050
C2811	C281	0.694860	0.150040	0.387610
C2821	C282	0.671790	0.149700	0.367950
C2831	C283	0.651430	0.168430	0.367040
C2841	C284	0.661460	0.185190	0.390570
C2851	C285	0.643960	0.210560	0.398960
H2091	H209	0.629300	0.217900	0.390500
C2861	C286	0.718110	0.158660	0.377320
H2101	H210	0.731500	0.158300	0.390800
H2111	H211	0.716000	0.176400	0.370900
H2121	H212	0.723300	0.147300	0.362900
C2871	C287	0.689380	0.127850	0.408640
H2131	H213	0.670700	0.126500	0.411700
H2141	H214	0.698200	0.132200	0.424900
H2151	H215	0.695900	0.111200	0.402200
C2881	C288	0.658790	0.220080	0.426130
H2161	H216	0.651800	0.234200	0.435700
O491	O49	0.816160	0.735720	0.529960
O501	O50	0.790100	0.702400	0.528400
C2891	C289	0.807530	0.712750	0.536260
C2901	C290	0.816570	0.706710	0.563960
C2911	C291	0.810790	0.684670	0.571550
H2171	H217	0.803900	0.672200	0.559800
C2921	C292	0.814920	0.677490	0.600950
C2931	C293	0.805140	0.650040	0.612390
C2941	C294	0.828210	0.649700	0.632050
C2951	C295	0.848570	0.668430	0.632960
C2961	C296	0.838540	0.685190	0.609430
C2971	C297	0.856040	0.710560	0.601040
H2181	H218	0.870700	0.717900	0.609500
C2981	C298	0.781890	0.658660	0.622680
H2191	H219	0.768500	0.658300	0.609200
H2201	H220	0.784000	0.676400	0.629100
H2211	H221	0.776700	0.647300	0.637100
C2991	C299	0.810620	0.627850	0.591360
H2221	H222	0.829300	0.626500	0.588300
H2231	H223	0.801800	0.632200	0.575100
H2241	H224	0.804100	0.611200	0.597800
C3001	C300	0.841210	0.720080	0.573870
H2251	H225	0.848200	0.734200	0.564300
O511	O51	0.816160	0.235720	0.029960
O521	O52	0.790100	0.202400	0.028400
C3011	C301	0.807530	0.212750	0.036260
C3021	C302	0.816570	0.206710	0.063960
C3031	C303	0.810790	0.184670	0.071550
H2261	H226	0.803900	0.172200	0.059800
C3041	C304	0.814920	0.177490	0.100950
C3051	C305	0.805140	0.150040	0.112390
C3061	C306	0.828210	0.149700	0.132050
C3071	C307	0.848570	0.168430	0.132960
C3081	C308	0.838540	0.185190	0.109430
C3091	C309	0.856040	0.210560	0.101040
H2271	H227	0.870700	0.217900	0.109500
C3101	C310	0.781890	0.158660	0.122680
H2281	H228	0.768500	0.158300	0.109200
H2291	H229	0.784000	0.176400	0.129100
H2301	H230	0.776700	0.147300	0.137100
C3111	C311	0.810620	0.127850	0.091360
H2311	H231	0.829300	0.126500	0.088300
H2321	H232	0.801800	0.132200	0.075100
H2331	H233	0.804100	0.111200	0.097800
C3121	C312	0.841210	0.220080	0.073870
H2341	H234	0.848200	0.234200	0.064300
O531	O53	0.316160	0.735720	0.029960
O541	O54	0.290100	0.702400	0.028400
C3131	C313	0.307530	0.712750	0.036260
C3141	C314	0.316570	0.706710	0.063960
C3151	C315	0.310790	0.684670	0.071550
H2351	H235	0.303900	0.672200	0.059800
C3161	C316	0.314920	0.677490	0.100950
C3171	C317	0.305140	0.650040	0.112390
C3181	C318	0.328210	0.649700	0.132050
C3191	C319	0.348570	0.668430	0.132960
C3201	C320	0.338540	0.685190	0.109430
C3211	C321	0.356040	0.710560	0.101040
H2361	H236	0.370700	0.717900	0.109500
C3221	C322	0.281890	0.658660	0.122680
H2371	H237	0.268500	0.658300	0.109200
H2381	H238	0.284000	0.676400	0.129100
H2391	H239	0.276700	0.647300	0.137100
C3231	C323	0.310620	0.627850	0.091360
H2401	H240	0.329300	0.626500	0.088300
H2411	H241	0.301800	0.632200	0.075100
H2421	H242	0.304100	0.611200	0.097800
C3241	C324	0.341210	0.720080	0.073870
H2431	H243	0.348200	0.734200	0.064300
O551	O55	0.316160	0.235720	0.529960
O561	O56	0.290100	0.202400	0.528400
C3251	C325	0.307530	0.212750	0.536260
C3261	C326	0.316570	0.206710	0.563960
C3271	C327	0.310790	0.184670	0.571550
H2441	H244	0.303900	0.172200	0.559800
C3281	C328	0.314920	0.177490	0.600950
C3291	C329	0.305140	0.150040	0.612390
C3301	C330	0.328210	0.149700	0.632050
C3311	C331	0.348570	0.168430	0.632960
C3321	C332	0.338540	0.185190	0.609430
C3331	C333	0.356040	0.210560	0.601040
H2451	H245	0.370700	0.217900	0.609500
C3341	C334	0.281890	0.158660	0.622680
H2461	H246	0.268500	0.158300	0.609200
H2471	H247	0.284000	0.176400	0.629100
H2481	H248	0.276700	0.147300	0.637100
C3351	C335	0.310620	0.127850	0.591360
H2491	H249	0.329300	0.126500	0.588300
H2501	H250	0.301800	0.132200	0.575100
H2511	H251	0.304100	0.111200	0.597800
C3361	C336	0.341210	0.220080	0.573870
H2521	H252	0.348200	0.234200	0.564300
O571	O57	0.816160	0.264280	0.470040
O581	O58	0.790100	0.297600	0.471600
C3371	C337	0.807530	0.287250	0.463740
C3381	C338	0.816570	0.293290	0.436040
C3391	C339	0.810790	0.315330	0.428450
H2531	H253	0.803900	0.327800	0.440200
C3401	C340	0.814920	0.322510	0.399050
C3411	C341	0.805140	0.349960	0.387610
C3421	C342	0.828210	0.350300	0.367950
C3431	C343	0.848570	0.331570	0.367040
C3441	C344	0.838540	0.314810	0.390570
C3451	C345	0.856040	0.289440	0.398960
H2541	H254	0.870700	0.282100	0.390500
C3461	C346	0.781890	0.341340	0.377320
H2551	H255	0.768500	0.341700	0.390800
H2561	H256	0.784000	0.323600	0.370900
H2571	H257	0.776700	0.352700	0.362900
C3471	C347	0.810620	0.372150	0.408640
H2581	H258	0.829300	0.373500	0.411700
H2591	H259	0.801800	0.367800	0.424900
H2601	H260	0.804100	0.388800	0.402200
C3481	C348	0.841210	0.279920	0.426130
H2611	H261	0.848200	0.265800	0.435700
O591	O59	0.816160	0.764280	0.970040
O601	O60	0.790100	0.797600	0.971600
C3491	C349	0.807530	0.787250	0.963740
C3501	C350	0.816570	0.793290	0.936040
C3511	C351	0.810790	0.815330	0.928450
H2621	H262	0.803900	0.827800	0.940200
C3521	C352	0.814920	0.822510	0.899050
C3531	C353	0.805140	0.849960	0.887610
C3541	C354	0.828210	0.850300	0.867950
C3551	C355	0.848570	0.831570	0.867040
C3561	C356	0.838540	0.814810	0.890570
C3571	C357	0.856040	0.789440	0.898960
H2631	H263	0.870700	0.782100	0.890500
C3581	C358	0.781890	0.841340	0.877320
H2641	H264	0.768500	0.841700	0.890800
H2651	H265	0.784000	0.823600	0.870900
H2661	H266	0.776700	0.852700	0.862900
C3591	C359	0.810620	0.872150	0.908640
H2671	H267	0.829300	0.873500	0.911700
H2681	H268	0.801800	0.867800	0.924900
H2691	H269	0.804100	0.888800	0.902200
C3601	C360	0.841210	0.779920	0.926130
H2701	H270	0.848200	0.765800	0.935700
O611	O61	0.316160	0.264280	0.970040
O621	O62	0.290100	0.297600	0.971600
C3611	C361	0.307530	0.287250	0.963740
C3621	C362	0.316570	0.293290	0.936040
C3631	C363	0.310790	0.315330	0.928450
H2711	H271	0.303900	0.327800	0.940200
C3641	C364	0.314920	0.322510	0.899050
C3651	C365	0.305140	0.349960	0.887610
C3661	C366	0.328210	0.350300	0.867950
C3671	C367	0.348570	0.331570	0.867040
C3681	C368	0.338540	0.314810	0.890570
C3691	C369	0.356040	0.289440	0.898960
H2721	H272	0.370700	0.282100	0.890500
C3701	C370	0.281890	0.341340	0.877320
H2731	H273	0.268500	0.341700	0.890800
H2741	H274	0.284000	0.323600	0.870900
H2751	H275	0.276700	0.352700	0.862900
C3711	C371	0.310620	0.372150	0.908640
H2761	H276	0.329300	0.373500	0.911700
H2771	H277	0.301800	0.367800	0.924900
H2781	H278	0.304100	0.388800	0.902200
C3721	C372	0.341210	0.279920	0.926130
H2791	H279	0.348200	0.265800	0.935700
O631	O63	0.316160	0.764280	0.470040
O641	O64	0.290100	0.797600	0.471600
C3731	C373	0.307530	0.787250	0.463740
C3741	C374	0.316570	0.793290	0.436040
C3751	C375	0.310790	0.815330	0.428450
H2801	H280	0.303900	0.827800	0.440200
C3761	C376	0.314920	0.822510	0.399050
C3771	C377	0.305140	0.849960	0.387610
C3781	C378	0.328210	0.850300	0.367950
C3791	C379	0.348570	0.831570	0.367040
C3801	C380	0.338540	0.814810	0.390570
C3811	C381	0.356040	0.789440	0.398960
H2811	H281	0.370700	0.782100	0.390500
C3821	C382	0.281890	0.841340	0.377320
H2821	H282	0.268500	0.841700	0.390800
H2831	H283	0.284000	0.823600	0.370900
H2841	H284	0.276700	0.852700	0.362900
C3831	C383	0.310620	0.872150	0.408640
H2851	H285	0.329300	0.873500	0.411700
H2861	H286	0.301800	0.867800	0.424900
H2871	H287	0.304100	0.888800	0.402200
C3841	C384	0.341210	0.779920	0.426130
H2881	H288	0.348200	0.765800	0.435700
O651	O65	0.529960	0.183840	0.264280
O661	O66	0.528400	0.209900	0.297600
C3851	C385	0.536260	0.192470	0.287250
C3861	C386	0.563960	0.183430	0.293290
C3871	C387	0.571550	0.189210	0.315330
H2891	H289	0.559800	0.196100	0.327800
C3881	C388	0.600950	0.185080	0.322510
C3891	C389	0.612390	0.194860	0.349960
C3901	C390	0.632050	0.171790	0.350300
C3911	C391	0.632960	0.151430	0.331570
C3921	C392	0.609430	0.161460	0.314810
C3931	C393	0.601040	0.143960	0.289440
H2901	H290	0.609500	0.129300	0.282100
C3941	C394	0.622680	0.218110	0.341340
H2911	H291	0.609200	0.231500	0.341700
H2921	H292	0.629100	0.216000	0.323600
H2931	H293	0.637100	0.223300	0.352700
C3951	C395	0.591360	0.189380	0.372150
H2941	H294	0.588300	0.170700	0.373500
H2951	H295	0.575100	0.198200	0.367800
H2961	H296	0.597800	0.195900	0.388800
C3961	C396	0.573870	0.158790	0.279920
H2971	H297	0.564300	0.151800	0.265800
O671	O67	0.529960	0.683840	0.764280
O681	O68	0.528400	0.709900	0.797600
C3971	C397	0.536260	0.692470	0.787250
C3981	C398	0.563960	0.683430	0.793290
C3991	C399	0.571550	0.689210	0.815330
H2981	H298	0.559800	0.696100	0.827800
C4001	C400	0.600950	0.685080	0.822510
C4011	C401	0.612390	0.694860	0.849960
C4021	C402	0.632050	0.671790	0.850300
C4031	C403	0.632960	0.651430	0.831570
C4041	C404	0.609430	0.661460	0.814810
C4051	C405	0.601040	0.643960	0.789440
H2991	H299	0.609500	0.629300	0.782100
C4061	C406	0.622680	0.718110	0.841340
H3001	H300	0.609200	0.731500	0.841700
H3011	H301	0.629100	0.716000	0.823600
H3021	H302	0.637100	0.723300	0.852700
C4071	C407	0.591360	0.689380	0.872150
H3031	H303	0.588300	0.670700	0.873500
H3041	H304	0.575100	0.698200	0.867800
H3051	H305	0.597800	0.695900	0.888800
C4081	C408	0.573870	0.658790	0.779920
H3061	H306	0.564300	0.651800	0.765800
O691	O69	0.029960	0.183840	0.764280
O701	O70	0.028400	0.209900	0.797600
C4091	C409	0.036260	0.192470	0.787250
C4101	C410	0.063960	0.183430	0.793290
C4111	C411	0.071550	0.189210	0.815330
H3071	H307	0.059800	0.196100	0.827800
C4121	C412	0.100950	0.185080	0.822510
C4131	C413	0.112390	0.194860	0.849960
C4141	C414	0.132050	0.171790	0.850300
C4151	C415	0.132960	0.151430	0.831570
C4161	C416	0.109430	0.161460	0.814810
C4171	C417	0.101040	0.143960	0.789440
H3081	H308	0.109500	0.129300	0.782100
C4181	C418	0.122680	0.218110	0.841340
H3091	H309	0.109200	0.231500	0.841700
H3101	H310	0.129100	0.216000	0.823600
H3111	H311	0.137100	0.223300	0.852700
C4191	C419	0.091360	0.189380	0.872150
H3121	H312	0.088300	0.170700	0.873500
H3131	H313	0.075100	0.198200	0.867800
H3141	H314	0.097800	0.195900	0.888800
C4201	C420	0.073870	0.158790	0.779920
H3151	H315	0.064300	0.151800	0.765800
O711	O71	0.029960	0.683840	0.264280
O721	O72	0.028400	0.709900	0.297600
C4211	C421	0.036260	0.692470	0.287250
C4221	C422	0.063960	0.683430	0.293290
C4231	C423	0.071550	0.689210	0.315330
H3161	H316	0.059800	0.696100	0.327800
C4241	C424	0.100950	0.685080	0.322510
C4251	C425	0.112390	0.694860	0.349960
C4261	C426	0.132050	0.671790	0.350300
C4271	C427	0.132960	0.651430	0.331570
C4281	C428	0.109430	0.661460	0.314810
C4291	C429	0.101040	0.643960	0.289440
H3171	H317	0.109500	0.629300	0.282100
C4301	C430	0.122680	0.718110	0.341340
H3181	H318	0.109200	0.731500	0.341700
H3191	H319	0.129100	0.716000	0.323600
H3201	H320	0.137100	0.723300	0.352700
C4311	C431	0.091360	0.689380	0.372150
H3211	H321	0.088300	0.670700	0.373500
H3221	H322	0.075100	0.698200	0.367800
H3231	H323	0.097800	0.695900	0.388800
C4321	C432	0.073870	0.658790	0.279920
H3241	H324	0.064300	0.651800	0.265800
O731	O73	0.470040	0.183840	0.735720
O741	O74	0.471600	0.209900	0.702400
C4331	C433	0.463740	0.192470	0.712750
C4341	C434	0.436040	0.183430	0.706710
C4351	C435	0.428450	0.189210	0.684670
H3251	H325	0.440200	0.196100	0.672200
C4361	C436	0.399050	0.185080	0.677490
C4371	C437	0.387610	0.194860	0.650040
C4381	C438	0.367950	0.171790	0.649700
C4391	C439	0.367040	0.151430	0.668430
C4401	C440	0.390570	0.161460	0.685190
C4411	C441	0.398960	0.143960	0.710560
H3261	H326	0.390500	0.129300	0.717900
C4421	C442	0.377320	0.218110	0.658660
H3271	H327	0.390800	0.231500	0.658300
H3281	H328	0.370900	0.216000	0.676400
H3291	H329	0.362900	0.223300	0.647300
C4431	C443	0.408640	0.189380	0.627850
H3301	H330	0.411700	0.170700	0.626500
H3311	H331	0.424900	0.198200	0.632200
H3321	H332	0.402200	0.195900	0.611200
C4441	C444	0.426130	0.158790	0.720080
H3331	H333	0.435700	0.151800	0.734200
O751	O75	0.470040	0.683840	0.235720
O761	O76	0.471600	0.709900	0.202400
C4451	C445	0.463740	0.692470	0.212750
C4461	C446	0.436040	0.683430	0.206710
C4471	C447	0.428450	0.689210	0.184670
H3341	H334	0.440200	0.696100	0.172200
C4481	C448	0.399050	0.685080	0.177490
C4491	C449	0.387610	0.694860	0.150040
C4501	C450	0.367950	0.671790	0.149700
C4511	C451	0.367040	0.651430	0.168430
C4521	C452	0.390570	0.661460	0.185190
C4531	C453	0.398960	0.643960	0.210560
H3351	H335	0.390500	0.629300	0.217900
C4541	C454	0.377320	0.718110	0.158660
H3361	H336	0.390800	0.731500	0.158300
H3371	H337	0.370900	0.716000	0.176400
H3381	H338	0.362900	0.723300	0.147300
C4551	C455	0.408640	0.689380	0.127850
H3391	H339	0.411700	0.670700	0.126500
H3401	H340	0.424900	0.698200	0.132200
H3411	H341	0.402200	0.695900	0.111200
C4561	C456	0.426130	0.658790	0.220080
H3421	H342	0.435700	0.651800	0.234200
O771	O77	0.970040	0.183840	0.235720
O781	O78	0.971600	0.209900	0.202400
C4571	C457	0.963740	0.192470	0.212750
C4581	C458	0.936040	0.183430	0.206710
C4591	C459	0.928450	0.189210	0.184670
H3431	H343	0.940200	0.196100	0.172200
C4601	C460	0.899050	0.185080	0.177490
C4611	C461	0.887610	0.194860	0.150040
C4621	C462	0.867950	0.171790	0.149700
C4631	C463	0.867040	0.151430	0.168430
C4641	C464	0.890570	0.161460	0.185190
C4651	C465	0.898960	0.143960	0.210560
H3441	H344	0.890500	0.129300	0.217900
C4661	C466	0.877320	0.218110	0.158660
H3451	H345	0.890800	0.231500	0.158300
H3461	H346	0.870900	0.216000	0.176400
H3471	H347	0.862900	0.223300	0.147300
C4671	C467	0.908640	0.189380	0.127850
H3481	H348	0.911700	0.170700	0.126500
H3491	H349	0.924900	0.198200	0.132200
H3501	H350	0.902200	0.195900	0.111200
C4681	C468	0.926130	0.158790	0.220080
H3511	H351	0.935700	0.151800	0.234200
O791	O79	0.970040	0.683840	0.735720
O801	O80	0.971600	0.709900	0.702400
C4691	C469	0.963740	0.692470	0.712750
C4701	C470	0.936040	0.683430	0.706710
C4711	C471	0.928450	0.689210	0.684670
H3521	H352	0.940200	0.696100	0.672200
C4721	C472	0.899050	0.685080	0.677490
C4731	C473	0.887610	0.694860	0.650040
C4741	C474	0.867950	0.671790	0.649700
C4751	C475	0.867040	0.651430	0.668430
C4761	C476	0.890570	0.661460	0.685190
C4771	C477	0.898960	0.643960	0.710560
H3531	H353	0.890500	0.629300	0.717900
C4781	C478	0.877320	0.718110	0.658660
H3541	H354	0.890800	0.731500	0.658300
H3551	H355	0.870900	0.716000	0.676400
H3561	H356	0.862900	0.723300	0.647300
C4791	C479	0.908640	0.689380	0.627850
H3571	H357	0.911700	0.670700	0.626500
H3581	H358	0.924900	0.698200	0.632200
H3591	H359	0.902200	0.695900	0.611200
C4801	C480	0.926130	0.658790	0.720080
H3601	H360	0.935700	0.651800	0.734200
O811	O81	0.529960	0.816160	0.735720
O821	O82	0.528400	0.790100	0.702400
C4811	C481	0.536260	0.807530	0.712750
C4821	C482	0.563960	0.816570	0.706710
C4831	C483	0.571550	0.810790	0.684670
H3611	H361	0.559800	0.803900	0.672200
C4841	C484	0.600950	0.814920	0.677490
C4851	C485	0.612390	0.805140	0.650040
C4861	C486	0.632050	0.828210	0.649700
C4871	C487	0.632960	0.848570	0.668430
C4881	C488	0.609430	0.838540	0.685190
C4891	C489	0.601040	0.856040	0.710560
H3621	H362	0.609500	0.870700	0.717900
C4901	C490	0.622680	0.781890	0.658660
H3631	H363	0.609200	0.768500	0.658300
H3641	H364	0.629100	0.784000	0.676400
H3651	H365	0.637100	0.776700	0.647300
C4911	C491	0.591360	0.810620	0.627850
H3661	H366	0.588300	0.829300	0.626500
H3671	H367	0.575100	0.801800	0.632200
H3681	H368	0.597800	0.804100	0.611200
C4921	C492	0.573870	0.841210	0.720080
H3691	H369	0.564300	0.848200	0.734200
O831	O83	0.529960	0.316160	0.235720
O841	O84	0.528400	0.290100	0.202400
C4931	C493	0.536260	0.307530	0.212750
C4941	C494	0.563960	0.316570	0.206710
C4951	C495	0.571550	0.310790	0.184670
H3701	H370	0.559800	0.303900	0.172200
C4961	C496	0.600950	0.314920	0.177490
C4971	C497	0.612390	0.305140	0.150040
C4981	C498	0.632050	0.328210	0.149700
C4991	C499	0.632960	0.348570	0.168430
C5001	C500	0.609430	0.338540	0.185190
C5011	C501	0.601040	0.356040	0.210560
H3711	H371	0.609500	0.370700	0.217900
C5021	C502	0.622680	0.281890	0.158660
H3721	H372	0.609200	0.268500	0.158300
H3731	H373	0.629100	0.284000	0.176400
H3741	H374	0.637100	0.276700	0.147300
C5031	C503	0.591360	0.310620	0.127850
H3751	H375	0.588300	0.329300	0.126500
H3761	H376	0.575100	0.301800	0.132200
H3771	H377	0.597800	0.304100	0.111200
C5041	C504	0.573870	0.341210	0.220080
H3781	H378	0.564300	0.348200	0.234200
O851	O85	0.029960	0.816160	0.235720
O861	O86	0.028400	0.790100	0.202400
C5051	C505	0.036260	0.807530	0.212750
C5061	C506	0.063960	0.816570	0.206710
C5071	C507	0.071550	0.810790	0.184670
H3791	H379	0.059800	0.803900	0.172200
C5081	C508	0.100950	0.814920	0.177490
C5091	C509	0.112390	0.805140	0.150040
C5101	C510	0.132050	0.828210	0.149700
C5111	C511	0.132960	0.848570	0.168430
C5121	C512	0.109430	0.838540	0.185190
C5131	C513	0.101040	0.856040	0.210560
H3801	H380	0.109500	0.870700	0.217900
C5141	C514	0.122680	0.781890	0.158660
H3811	H381	0.109200	0.768500	0.158300
H3821	H382	0.129100	0.784000	0.176400
H3831	H383	0.137100	0.776700	0.147300
C5151	C515	0.091360	0.810620	0.127850
H3841	H384	0.088300	0.829300	0.126500
H3851	H385	0.075100	0.801800	0.132200
H3861	H386	0.097800	0.804100	0.111200
C5161	C516	0.073870	0.841210	0.220080
H3871	H387	0.064300	0.848200	0.234200
O871	O87	0.029960	0.316160	0.735720
O881	O88	0.028400	0.290100	0.702400
C5171	C517	0.036260	0.307530	0.712750
C5181	C518	0.063960	0.316570	0.706710
C5191	C519	0.071550	0.310790	0.684670
H3881	H388	0.059800	0.303900	0.672200
C5201	C520	0.100950	0.314920	0.677490
C5211	C521	0.112390	0.305140	0.650040
C5221	C522	0.132050	0.328210	0.649700
C5231	C523	0.132960	0.348570	0.668430
C5241	C524	0.109430	0.338540	0.685190
C5251	C525	0.101040	0.356040	0.710560
H3891	H389	0.109500	0.370700	0.717900
C5261	C526	0.122680	0.281890	0.658660
H3901	H390	0.109200	0.268500	0.658300
H3911	H391	0.129100	0.284000	0.676400
H3921	H392	0.137100	0.276700	0.647300
C5271	C527	0.091360	0.310620	0.627850
H3931	H393	0.088300	0.329300	0.626500
H3941	H394	0.075100	0.301800	0.632200
H3951	H395	0.097800	0.304100	0.611200
C5281	C528	0.073870	0.341210	0.720080
H3961	H396	0.064300	0.348200	0.734200
O891	O89	0.470040	0.816160	0.264280
O901	O90	0.471600	0.790100	0.297600
C5291	C529	0.463740	0.807530	0.287250
C5301	C530	0.436040	0.816570	0.293290
C5311	C531	0.428450	0.810790	0.315330
H3971	H397	0.440200	0.803900	0.327800
C5321	C532	0.399050	0.814920	0.322510
C5331	C533	0.387610	0.805140	0.349960
C5341	C534	0.367950	0.828210	0.350300
C5351	C535	0.367040	0.848570	0.331570
C5361	C536	0.390570	0.838540	0.314810
C5371	C537	0.398960	0.856040	0.289440
H3981	H398	0.390500	0.870700	0.282100
C5381	C538	0.377320	0.781890	0.341340
H3991	H399	0.390800	0.768500	0.341700
H4001	H400	0.370900	0.784000	0.323600
H4011	H401	0.362900	0.776700	0.352700
C5391	C539	0.408640	0.810620	0.372150
H4021	H402	0.411700	0.829300	0.373500
H4031	H403	0.424900	0.801800	0.367800
H4041	H404	0.402200	0.804100	0.388800
C5401	C540	0.426130	0.841210	0.279920
H4051	H405	0.435700	0.848200	0.265800
O911	O91	0.470040	0.316160	0.764280
O921	O92	0.471600	0.290100	0.797600
C5411	C541	0.463740	0.307530	0.787250
C5421	C542	0.436040	0.316570	0.793290
C5431	C543	0.428450	0.310790	0.815330
H4061	H406	0.440200	0.303900	0.827800
C5441	C544	0.399050	0.314920	0.822510
C5451	C545	0.387610	0.305140	0.849960
C5461	C546	0.367950	0.328210	0.850300
C5471	C547	0.367040	0.348570	0.831570
C5481	C548	0.390570	0.338540	0.814810
C5491	C549	0.398960	0.356040	0.789440
H4071	H407	0.390500	0.370700	0.782100
C5501	C550	0.377320	0.281890	0.841340
H4081	H408	0.390800	0.268500	0.841700
H4091	H409	0.370900	0.284000	0.823600
H4101	H410	0.362900	0.276700	0.852700
C5511	C551	0.408640	0.310620	0.872150
H4111	H411	0.411700	0.329300	0.873500
H4121	H412	0.424900	0.301800	0.867800
H4131	H413	0.402200	0.304100	0.888800
C5521	C552	0.426130	0.341210	0.779920
H4141	H414	0.435700	0.348200	0.765800
O931	O93	0.970040	0.816160	0.764280
O941	O94	0.971600	0.790100	0.797600
C5531	C553	0.963740	0.807530	0.787250
C5541	C554	0.936040	0.816570	0.793290
C5551	C555	0.928450	0.810790	0.815330
H4151	H415	0.940200	0.803900	0.827800
C5561	C556	0.899050	0.814920	0.822510
C5571	C557	0.887610	0.805140	0.849960
C5581	C558	0.867950	0.828210	0.850300
C5591	C559	0.867040	0.848570	0.831570
C5601	C560	0.890570	0.838540	0.814810
C5611	C561	0.898960	0.856040	0.789440
H4161	H416	0.890500	0.870700	0.782100
C5621	C562	0.877320	0.781890	0.841340
H4171	H417	0.890800	0.768500	0.841700
H4181	H418	0.870900	0.784000	0.823600
H4191	H419	0.862900	0.776700	0.852700
C5631	C563	0.908640	0.810620	0.872150
H4201	H420	0.911700	0.829300	0.873500
H4211	H421	0.924900	0.801800	0.867800
H4221	H422	0.902200	0.804100	0.888800
C5641	C564	0.926130	0.841210	0.779920
H4231	H423	0.935700	0.848200	0.765800
O951	O95	0.970040	0.316160	0.264280
O961	O96	0.971600	0.290100	0.297600
C5651	C565	0.963740	0.307530	0.287250
C5661	C566	0.936040	0.316570	0.293290
C5671	C567	0.928450	0.310790	0.315330
H4241	H424	0.940200	0.303900	0.327800
C5681	C568	0.899050	0.314920	0.322510
C5691	C569	0.887610	0.305140	0.349960
C5701	C570	0.867950	0.328210	0.350300
C5711	C571	0.867040	0.348570	0.331570
C5721	C572	0.890570	0.338540	0.314810
C5731	C573	0.898960	0.356040	0.289440
H4251	H425	0.890500	0.370700	0.282100
C5741	C574	0.877320	0.281890	0.341340
H4261	H426	0.890800	0.268500	0.341700
H4271	H427	0.870900	0.284000	0.323600
H4281	H428	0.862900	0.276700	0.352700
C5751	C575	0.908640	0.310620	0.372150
H4291	H429	0.911700	0.329300	0.373500
H4301	H430	0.924900	0.301800	0.367800
H4311	H431	0.902200	0.304100	0.388800
C5761	C576	0.926130	0.341210	0.279920
H4321	H432	0.935700	0.348200	0.265800
O971	O97	0.029960	0.764280	0.316160
O981	O98	0.028400	0.797600	0.290100
C5771	C577	0.036260	0.787250	0.307530
C5781	C578	0.063960	0.793290	0.316570
C5791	C579	0.071550	0.815330	0.310790
H4331	H433	0.059800	0.827800	0.303900
C5801	C580	0.100950	0.822510	0.314920
C5811	C581	0.112390	0.849960	0.305140
C5821	C582	0.132050	0.850300	0.328210
C5831	C583	0.132960	0.831570	0.348570
C5841	C584	0.109430	0.814810	0.338540
C5851	C585	0.101040	0.789440	0.356040
H4341	H434	0.109500	0.782100	0.370700
C5861	C586	0.122680	0.841340	0.281890
H4351	H435	0.109200	0.841700	0.268500
H4361	H436	0.129100	0.823600	0.284000
H4371	H437	0.137100	0.852700	0.276700
C5871	C587	0.091360	0.872150	0.310620
H4381	H438	0.088300	0.873500	0.329300
H4391	H439	0.075100	0.867800	0.301800
H4401	H440	0.097800	0.888800	0.304100
C5881	C588	0.073870	0.779920	0.341210
H4411	H441	0.064300	0.765800	0.348200
O991	O99	0.029960	0.264280	0.816160
O1001	O100	0.028400	0.297600	0.790100
C5891	C589	0.036260	0.287250	0.807530
C5901	C590	0.063960	0.293290	0.816570
C5911	C591	0.071550	0.315330	0.810790
H4421	H442	0.059800	0.327800	0.803900
C5921	C592	0.100950	0.322510	0.814920
C5931	C593	0.112390	0.349960	0.805140
C5941	C594	0.132050	0.350300	0.828210
C5951	C595	0.132960	0.331570	0.848570
C5961	C596	0.109430	0.314810	0.838540
C5971	C597	0.101040	0.289440	0.856040
H4431	H443	0.109500	0.282100	0.870700
C5981	C598	0.122680	0.341340	0.781890
H4441	H444	0.109200	0.341700	0.768500
H4451	H445	0.129100	0.323600	0.784000
H4461	H446	0.137100	0.352700	0.776700
C5991	C599	0.091360	0.372150	0.810620
H4471	H447	0.088300	0.373500	0.829300
H4481	H448	0.075100	0.367800	0.801800
H4491	H449	0.097800	0.388800	0.804100
C6001	C600	0.073870	0.279920	0.841210
H4501	H450	0.064300	0.265800	0.848200
O1011	O101	0.529960	0.764280	0.816160
O1021	O102	0.528400	0.797600	0.790100
C6011	C601	0.536260	0.787250	0.807530
C6021	C602	0.563960	0.793290	0.816570
C6031	C603	0.571550	0.815330	0.810790
H4511	H451	0.559800	0.827800	0.803900
C6041	C604	0.600950	0.822510	0.814920
C6051	C605	0.612390	0.849960	0.805140
C6061	C606	0.632050	0.850300	0.828210
C6071	C607	0.632960	0.831570	0.848570
C6081	C608	0.609430	0.814810	0.838540
C6091	C609	0.601040	0.789440	0.856040
H4521	H452	0.609500	0.782100	0.870700
C6101	C610	0.622680	0.841340	0.781890
H4531	H453	0.609200	0.841700	0.768500
H4541	H454	0.629100	0.823600	0.784000
H4551	H455	0.637100	0.852700	0.776700
C6111	C611	0.591360	0.872150	0.810620
H4561	H456	0.588300	0.873500	0.829300
H4571	H457	0.575100	0.867800	0.801800
H4581	H458	0.597800	0.888800	0.804100
C6121	C612	0.573870	0.779920	0.841210
H4591	H459	0.564300	0.765800	0.848200
O1031	O103	0.529960	0.264280	0.316160
O1041	O104	0.528400	0.297600	0.290100
C6131	C613	0.536260	0.287250	0.307530
C6141	C614	0.563960	0.293290	0.316570
C6151	C615	0.571550	0.315330	0.310790
H4601	H460	0.559800	0.327800	0.303900
C6161	C616	0.600950	0.322510	0.314920
C6171	C617	0.612390	0.349960	0.305140
C6181	C618	0.632050	0.350300	0.328210
C6191	C619	0.632960	0.331570	0.348570
C6201	C620	0.609430	0.314810	0.338540
C6211	C621	0.601040	0.289440	0.356040
H4611	H461	0.609500	0.282100	0.370700
C6221	C622	0.622680	0.341340	0.281890
H4621	H462	0.609200	0.341700	0.268500
H4631	H463	0.629100	0.323600	0.284000
H4641	H464	0.637100	0.352700	0.276700
C6231	C623	0.591360	0.372150	0.310620
H4651	H465	0.588300	0.373500	0.329300
H4661	H466	0.575100	0.367800	0.301800
H4671	H467	0.597800	0.388800	0.304100
C6241	C624	0.573870	0.279920	0.341210
H4681	H468	0.564300	0.265800	0.348200
O1051	O105	0.970040	0.235720	0.316160
O1061	O106	0.971600	0.202400	0.290100
C6251	C625	0.963740	0.212750	0.307530
C6261	C626	0.936040	0.206710	0.316570
C6271	C627	0.928450	0.184670	0.310790
H4691	H469	0.940200	0.172200	0.303900
C6281	C628	0.899050	0.177490	0.314920
C6291	C629	0.887610	0.150040	0.305140
C6301	C630	0.867950	0.149700	0.328210
C6311	C631	0.867040	0.168430	0.348570
C6321	C632	0.890570	0.185190	0.338540
C6331	C633	0.898960	0.210560	0.356040
H4701	H470	0.890500	0.217900	0.370700
C6341	C634	0.877320	0.158660	0.281890
H4711	H471	0.890800	0.158300	0.268500
H4721	H472	0.870900	0.176400	0.284000
H4731	H473	0.862900	0.147300	0.276700
C6351	C635	0.908640	0.127850	0.310620
H4741	H474	0.911700	0.126500	0.329300
H4751	H475	0.924900	0.132200	0.301800
H4761	H476	0.902200	0.111200	0.304100
C6361	C636	0.926130	0.220080	0.341210
H4771	H477	0.935700	0.234200	0.348200
O1071	O107	0.970040	0.735720	0.816160
O1081	O108	0.971600	0.702400	0.790100
C6371	C637	0.963740	0.712750	0.807530
C6381	C638	0.936040	0.706710	0.816570
C6391	C639	0.928450	0.684670	0.810790
H4781	H478	0.940200	0.672200	0.803900
C6401	C640	0.899050	0.677490	0.814920
C6411	C641	0.887610	0.650040	0.805140
C6421	C642	0.867950	0.649700	0.828210
C6431	C643	0.867040	0.668430	0.848570
C6441	C644	0.890570	0.685190	0.838540
C6451	C645	0.898960	0.710560	0.856040
H4791	H479	0.890500	0.717900	0.870700
C6461	C646	0.877320	0.658660	0.781890
H4801	H480	0.890800	0.658300	0.768500
H4811	H481	0.870900	0.676400	0.784000
H4821	H482	0.862900	0.647300	0.776700
C6471	C647	0.908640	0.627850	0.810620
H4831	H483	0.911700	0.626500	0.829300
H4841	H484	0.924900	0.632200	0.801800
H4851	H485	0.902200	0.611200	0.804100
C6481	C648	0.926130	0.720080	0.841210
H4861	H486	0.935700	0.734200	0.848200
O1091	O109	0.470040	0.235720	0.816160
O1101	O110	0.471600	0.202400	0.790100
C6491	C649	0.463740	0.212750	0.807530
C6501	C650	0.436040	0.206710	0.816570
C6511	C651	0.428450	0.184670	0.810790
H4871	H487	0.440200	0.172200	0.803900
C6521	C652	0.399050	0.177490	0.814920
C6531	C653	0.387610	0.150040	0.805140
C6541	C654	0.367950	0.149700	0.828210
C6551	C655	0.367040	0.168430	0.848570
C6561	C656	0.390570	0.185190	0.838540
C6571	C657	0.398960	0.210560	0.856040
H4881	H488	0.390500	0.217900	0.870700
C6581	C658	0.377320	0.158660	0.781890
H4891	H489	0.390800	0.158300	0.768500
H4901	H490	0.370900	0.176400	0.784000
H4911	H491	0.362900	0.147300	0.776700
C6591	C659	0.408640	0.127850	0.810620
H4921	H492	0.411700	0.126500	0.829300
H4931	H493	0.424900	0.132200	0.801800
H4941	H494	0.402200	0.111200	0.804100
C6601	C660	0.426130	0.220080	0.841210
H4951	H495	0.435700	0.234200	0.848200
O1111	O111	0.470040	0.735720	0.316160
O1121	O112	0.471600	0.702400	0.290100
C6611	C661	0.463740	0.712750	0.307530
C6621	C662	0.436040	0.706710	0.316570
C6631	C663	0.428450	0.684670	0.310790
H4961	H496	0.440200	0.672200	0.303900
C6641	C664	0.399050	0.677490	0.314920
C6651	C665	0.387610	0.650040	0.305140
C6661	C666	0.367950	0.649700	0.328210
C6671	C667	0.367040	0.668430	0.348570
C6681	C668	0.390570	0.685190	0.338540
C6691	C669	0.398960	0.710560	0.356040
H4971	H497	0.390500	0.717900	0.370700
C6701	C670	0.377320	0.658660	0.281890
H4981	H498	0.390800	0.658300	0.268500
H4991	H499	0.370900	0.676400	0.284000
H5001	H500	0.362900	0.647300	0.276700
C6711	C671	0.408640	0.627850	0.310620
H5011	H501	0.411700	0.626500	0.329300
H5021	H502	0.424900	0.632200	0.301800
H5031	H503	0.402200	0.611200	0.304100
C6721	C672	0.426130	0.720080	0.341210
H5041	H504	0.435700	0.734200	0.348200
O1131	O113	0.029960	0.235720	0.683840
O1141	O114	0.028400	0.202400	0.709900
C6731	C673	0.036260	0.212750	0.692470
C6741	C674	0.063960	0.206710	0.683430
C6751	C675	0.071550	0.184670	0.689210
H5051	H505	0.059800	0.172200	0.696100
C6761	C676	0.100950	0.177490	0.685080
C6771	C677	0.112390	0.150040	0.694860
C6781	C678	0.132050	0.149700	0.671790
C6791	C679	0.132960	0.168430	0.651430
C6801	C680	0.109430	0.185190	0.661460
C6811	C681	0.101040	0.210560	0.643960
H5061	H506	0.109500	0.217900	0.629300
C6821	C682	0.122680	0.158660	0.718110
H5071	H507	0.109200	0.158300	0.731500
H5081	H508	0.129100	0.176400	0.716000
H5091	H509	0.137100	0.147300	0.723300
C6831	C683	0.091360	0.127850	0.689380
H5101	H510	0.088300	0.126500	0.670700
H5111	H511	0.075100	0.132200	0.698200
H5121	H512	0.097800	0.111200	0.695900
C6841	C684	0.073870	0.220080	0.658790
H5131	H513	0.064300	0.234200	0.651800
O1151	O115	0.029960	0.735720	0.183840
O1161	O116	0.028400	0.702400	0.209900
C6851	C685	0.036260	0.712750	0.192470
C6861	C686	0.063960	0.706710	0.183430
C6871	C687	0.071550	0.684670	0.189210
H5141	H514	0.059800	0.672200	0.196100
C6881	C688	0.100950	0.677490	0.185080
C6891	C689	0.112390	0.650040	0.194860
C6901	C690	0.132050	0.649700	0.171790
C6911	C691	0.132960	0.668430	0.151430
C6921	C692	0.109430	0.685190	0.161460
C6931	C693	0.101040	0.710560	0.143960
H5151	H515	0.109500	0.717900	0.129300
C6941	C694	0.122680	0.658660	0.218110
H5161	H516	0.109200	0.658300	0.231500
H5171	H517	0.129100	0.676400	0.216000
H5181	H518	0.137100	0.647300	0.223300
C6951	C695	0.091360	0.627850	0.189380
H5191	H519	0.088300	0.626500	0.170700
H5201	H520	0.075100	0.632200	0.198200
H5211	H521	0.097800	0.611200	0.195900
C6961	C696	0.073870	0.720080	0.158790
H5221	H522	0.064300	0.734200	0.151800
O1171	O117	0.529960	0.235720	0.183840
O1181	O118	0.528400	0.202400	0.209900
C6971	C697	0.536260	0.212750	0.192470
C6981	C698	0.563960	0.206710	0.183430
C6991	C699	0.571550	0.184670	0.189210
H5231	H523	0.559800	0.172200	0.196100
C7001	C700	0.600950	0.177490	0.185080
C7011	C701	0.612390	0.150040	0.194860
C7021	C702	0.632050	0.149700	0.171790
C7031	C703	0.632960	0.168430	0.151430
C7041	C704	0.609430	0.185190	0.161460
C7051	C705	0.601040	0.210560	0.143960
H5241	H524	0.609500	0.217900	0.129300
C7061	C706	0.622680	0.158660	0.218110
H5251	H525	0.609200	0.158300	0.231500
H5261	H526	0.629100	0.176400	0.216000
H5271	H527	0.637100	0.147300	0.223300
C7071	C707	0.591360	0.127850	0.189380
H5281	H528	0.588300	0.126500	0.170700
H5291	H529	0.575100	0.132200	0.198200
H5301	H530	0.597800	0.111200	0.195900
C7081	C708	0.573870	0.220080	0.158790
H5311	H531	0.564300	0.234200	0.151800
O1191	O119	0.529960	0.735720	0.683840
O1201	O120	0.528400	0.702400	0.709900
C7091	C709	0.536260	0.712750	0.692470
C7101	C710	0.563960	0.706710	0.683430
C7111	C711	0.571550	0.684670	0.689210
H5321	H532	0.559800	0.672200	0.696100
C7121	C712	0.600950	0.677490	0.685080
C7131	C713	0.612390	0.650040	0.694860
C7141	C714	0.632050	0.649700	0.671790
C7151	C715	0.632960	0.668430	0.651430
C7161	C716	0.609430	0.685190	0.661460
C7171	C717	0.601040	0.710560	0.643960
H5331	H533	0.609500	0.717900	0.629300
C7181	C718	0.622680	0.658660	0.718110
H5341	H534	0.609200	0.658300	0.731500
H5351	H535	0.629100	0.676400	0.716000
H5361	H536	0.637100	0.647300	0.723300
C7191	C719	0.591360	0.627850	0.689380
H5371	H537	0.588300	0.626500	0.670700
H5381	H538	0.575100	0.632200	0.698200
H5391	H539	0.597800	0.611200	0.695900
C7201	C720	0.573870	0.720080	0.658790
H5401	H540	0.564300	0.734200	0.651800
O1211	O121	0.970040	0.764280	0.683840
O1221	O122	0.971600	0.797600	0.709900
C7211	C721	0.963740	0.787250	0.692470
C7221	C722	0.936040	0.793290	0.683430
C7231	C723	0.928450	0.815330	0.689210
H5411	H541	0.940200	0.827800	0.696100
C7241	C724	0.899050	0.822510	0.685080
C7251	C725	0.887610	0.849960	0.694860
C7261	C726	0.867950	0.850300	0.671790
C7271	C727	0.867040	0.831570	0.651430
C7281	C728	0.890570	0.814810	0.661460
C7291	C729	0.898960	0.789440	0.643960
H5421	H542	0.890500	0.782100	0.629300
C7301	C730	0.877320	0.841340	0.718110
H5431	H543	0.890800	0.841700	0.731500
H5441	H544	0.870900	0.823600	0.716000
H5451	H545	0.862900	0.852700	0.723300
C7311	C731	0.908640	0.872150	0.689380
H5461	H546	0.911700	0.873500	0.670700
H5471	H547	0.924900	0.867800	0.698200
H5481	H548	0.902200	0.888800	0.695900
C7321	C732	0.926130	0.779920	0.658790
H5491	H549	0.935700	0.765800	0.651800
O1231	O123	0.970040	0.264280	0.183840
O1241	O124	0.971600	0.297600	0.209900
C7331	C733	0.963740	0.287250	0.192470
C7341	C734	0.936040	0.293290	0.183430
C7351	C735	0.928450	0.315330	0.189210
H5501	H550	0.940200	0.327800	0.196100
C7361	C736	0.899050	0.322510	0.185080
C7371	C737	0.887610	0.349960	0.194860
C7381	C738	0.867950	0.350300	0.171790
C7391	C739	0.867040	0.331570	0.151430
C7401	C740	0.890570	0.314810	0.161460
C7411	C741	0.898960	0.289440	0.143960
H5511	H551	0.890500	0.282100	0.129300
C7421	C742	0.877320	0.341340	0.218110
H5521	H552	0.890800	0.341700	0.231500
H5531	H553	0.870900	0.323600	0.216000
H5541	H554	0.862900	0.352700	0.223300
C7431	C743	0.908640	0.372150	0.189380
H5551	H555	0.911700	0.373500	0.170700
H5561	H556	0.924900	0.367800	0.198200
H5571	H557	0.902200	0.388800	0.195900
C7441	C744	0.926130	0.279920	0.158790
H5581	H558	0.935700	0.265800	0.151800
O1251	O125	0.470040	0.764280	0.183840
O1261	O126	0.471600	0.797600	0.209900
C7451	C745	0.463740	0.787250	0.192470
C7461	C746	0.436040	0.793290	0.183430
C7471	C747	0.428450	0.815330	0.189210
H5591	H559	0.440200	0.827800	0.196100
C7481	C748	0.399050	0.822510	0.185080
C7491	C749	0.387610	0.849960	0.194860
C7501	C750	0.367950	0.850300	0.171790
C7511	C751	0.367040	0.831570	0.151430
C7521	C752	0.390570	0.814810	0.161460
C7531	C753	0.398960	0.789440	0.143960
H5601	H560	0.390500	0.782100	0.129300
C7541	C754	0.377320	0.841340	0.218110
H5611	H561	0.390800	0.841700	0.231500
H5621	H562	0.370900	0.823600	0.216000
H5631	H563	0.362900	0.852700	0.223300
C7551	C755	0.408640	0.872150	0.189380
H5641	H564	0.411700	0.873500	0.170700
H5651	H565	0.424900	0.867800	0.198200
H5661	H566	0.402200	0.888800	0.195900
C7561	C756	0.426130	0.779920	0.158790
H5671	H567	0.435700	0.765800	0.151800
O1271	O127	0.470040	0.264280	0.683840
O1281	O128	0.471600	0.297600	0.709900
C7571	C757	0.463740	0.287250	0.692470
C7581	C758	0.436040	0.293290	0.683430
C7591	C759	0.428450	0.315330	0.689210
H5681	H568	0.440200	0.327800	0.696100
C7601	C760	0.399050	0.322510	0.685080
C7611	C761	0.387610	0.349960	0.694860
C7621	C762	0.367950	0.350300	0.671790
C7631	C763	0.367040	0.331570	0.651430
C7641	C764	0.390570	0.314810	0.661460
C7651	C765	0.398960	0.289440	0.643960
H5691	H569	0.390500	0.282100	0.629300
C7661	C766	0.377320	0.341340	0.718110
H5701	H570	0.390800	0.341700	0.731500
H5711	H571	0.370900	0.323600	0.716000
H5721	H572	0.362900	0.352700	0.723300
C7671	C767	0.408640	0.372150	0.689380
H5731	H573	0.411700	0.373500	0.670700
H5741	H574	0.424900	0.367800	0.698200
H5751	H575	0.402200	0.388800	0.695900
C7681	C768	0.426130	0.279920	0.658790
H5761	H576	0.435700	0.265800	0.651800
O1291	O129	0.764280	0.683840	0.970040
O1301	O130	0.797600	0.709900	0.971600
C7691	C769	0.787250	0.692470	0.963740
C7701	C770	0.793290	0.683430	0.936040
C7711	C771	0.815330	0.689210	0.928450
H5771	H577	0.827800	0.696100	0.940200
C7721	C772	0.822510	0.685080	0.899050
C7731	C773	0.849960	0.694860	0.887610
C7741	C774	0.850300	0.671790	0.867950
C7751	C775	0.831570	0.651430	0.867040
C7761	C776	0.814810	0.661460	0.890570
C7771	C777	0.789440	0.643960	0.898960
H5781	H578	0.782100	0.629300	0.890500
C7781	C778	0.841340	0.718110	0.877320
H5791	H579	0.841700	0.731500	0.890800
H5801	H580	0.823600	0.716000	0.870900
H5811	H581	0.852700	0.723300	0.862900
C7791	C779	0.872150	0.689380	0.908640
H5821	H582	0.873500	0.670700	0.911700
H5831	H583	0.867800	0.698200	0.924900
H5841	H584	0.888800	0.695900	0.902200
C7801	C780	0.779920	0.658790	0.926130
H5851	H585	0.765800	0.651800	0.935700
O1311	O131	0.764280	0.183840	0.470040
O1321	O132	0.797600	0.209900	0.471600
C7811	C781	0.787250	0.192470	0.463740
C7821	C782	0.793290	0.183430	0.436040
C7831	C783	0.815330	0.189210	0.428450
H5861	H586	0.827800	0.196100	0.440200
C7841	C784	0.822510	0.185080	0.399050
C7851	C785	0.849960	0.194860	0.387610
C7861	C786	0.850300	0.171790	0.367950
C7871	C787	0.831570	0.151430	0.367040
C7881	C788	0.814810	0.161460	0.390570
C7891	C789	0.789440	0.143960	0.398960
H5871	H587	0.782100	0.129300	0.390500
C7901	C790	0.841340	0.218110	0.377320
H5881	H588	0.841700	0.231500	0.390800
H5891	H589	0.823600	0.216000	0.370900
H5901	H590	0.852700	0.223300	0.362900
C7911	C791	0.872150	0.189380	0.408640
H5911	H591	0.873500	0.170700	0.411700
H5921	H592	0.867800	0.198200	0.424900
H5931	H593	0.888800	0.195900	0.402200
C7921	C792	0.779920	0.158790	0.426130
H5941	H594	0.765800	0.151800	0.435700
O1331	O133	0.264280	0.683840	0.470040
O1341	O134	0.297600	0.709900	0.471600
C7931	C793	0.287250	0.692470	0.463740
C7941	C794	0.293290	0.683430	0.436040
C7951	C795	0.315330	0.689210	0.428450
H5951	H595	0.327800	0.696100	0.440200
C7961	C796	0.322510	0.685080	0.399050
C7971	C797	0.349960	0.694860	0.387610
C7981	C798	0.350300	0.671790	0.367950
C7991	C799	0.331570	0.651430	0.367040
C8001	C800	0.314810	0.661460	0.390570
C8011	C801	0.289440	0.643960	0.398960
H5961	H596	0.282100	0.629300	0.390500
C8021	C802	0.341340	0.718110	0.377320
H5971	H597	0.341700	0.731500	0.390800
H5981	H598	0.323600	0.716000	0.370900
H5991	H599	0.352700	0.723300	0.362900
C8031	C803	0.372150	0.689380	0.408640
H6001	H600	0.373500	0.670700	0.411700
H6011	H601	0.367800	0.698200	0.424900
H6021	H602	0.388800	0.695900	0.402200
C8041	C804	0.279920	0.658790	0.426130
H6031	H603	0.265800	0.651800	0.435700
O1351	O135	0.264280	0.183840	0.970040
O1361	O136	0.297600	0.209900	0.971600
C8051	C805	0.287250	0.192470	0.963740
C8061	C806	0.293290	0.183430	0.936040
C8071	C807	0.315330	0.189210	0.928450
H6041	H604	0.327800	0.196100	0.940200
C8081	C808	0.322510	0.185080	0.899050
C8091	C809	0.349960	0.194860	0.887610
C8101	C810	0.350300	0.171790	0.867950
C8111	C811	0.331570	0.151430	0.867040
C8121	C812	0.314810	0.161460	0.890570
C8131	C813	0.289440	0.143960	0.898960
H6051	H605	0.282100	0.129300	0.890500
C8141	C814	0.341340	0.218110	0.877320
H6061	H606	0.341700	0.231500	0.890800
H6071	H607	0.323600	0.216000	0.870900
H6081	H608	0.352700	0.223300	0.862900
C8151	C815	0.372150	0.189380	0.908640
H6091	H609	0.373500	0.170700	0.911700
H6101	H610	0.367800	0.198200	0.924900
H6111	H611	0.388800	0.195900	0.902200
C8161	C816	0.279920	0.158790	0.926130
H6121	H612	0.265800	0.151800	0.935700
O1371	O137	0.235720	0.683840	0.029960
O1381	O138	0.202400	0.709900	0.028400
C8171	C817	0.212750	0.692470	0.036260
C8181	C818	0.206710	0.683430	0.063960
C8191	C819	0.184670	0.689210	0.071550
H6131	H613	0.172200	0.696100	0.059800
C8201	C820	0.177490	0.685080	0.100950
C8211	C821	0.150040	0.694860	0.112390
C8221	C822	0.149700	0.671790	0.132050
C8231	C823	0.168430	0.651430	0.132960
C8241	C824	0.185190	0.661460	0.109430
C8251	C825	0.210560	0.643960	0.101040
H6141	H614	0.217900	0.629300	0.109500
C8261	C826	0.158660	0.718110	0.122680
H6151	H615	0.158300	0.731500	0.109200
H6161	H616	0.176400	0.716000	0.129100
H6171	H617	0.147300	0.723300	0.137100
C8271	C827	0.127850	0.689380	0.091360
H6181	H618	0.126500	0.670700	0.088300
H6191	H619	0.132200	0.698200	0.075100
H6201	H620	0.111200	0.695900	0.097800
C8281	C828	0.220080	0.658790	0.073870
H6211	H621	0.234200	0.651800	0.064300
O1391	O139	0.235720	0.183840	0.529960
O1401	O140	0.202400	0.209900	0.528400
C8291	C829	0.212750	0.192470	0.536260
C8301	C830	0.206710	0.183430	0.563960
C8311	C831	0.184670	0.189210	0.571550
H6221	H622	0.172200	0.196100	0.559800
C8321	C832	0.177490	0.185080	0.600950
C8331	C833	0.150040	0.194860	0.612390
C8341	C834	0.149700	0.171790	0.632050
C8351	C835	0.168430	0.151430	0.632960
C8361	C836	0.185190	0.161460	0.609430
C8371	C837	0.210560	0.143960	0.601040
H6231	H623	0.217900	0.129300	0.609500
C8381	C838	0.158660	0.218110	0.622680
H6241	H624	0.158300	0.231500	0.609200
H6251	H625	0.176400	0.216000	0.629100
H6261	H626	0.147300	0.223300	0.637100
C8391	C839	0.127850	0.189380	0.591360
H6271	H627	0.126500	0.170700	0.588300
H6281	H628	0.132200	0.198200	0.575100
H6291	H629	0.111200	0.195900	0.597800
C8401	C840	0.220080	0.158790	0.573870
H6301	H630	0.234200	0.151800	0.564300
O1411	O141	0.735720	0.683840	0.529960
O1421	O142	0.702400	0.709900	0.528400
C8411	C841	0.712750	0.692470	0.536260
C8421	C842	0.706710	0.683430	0.563960
C8431	C843	0.684670	0.689210	0.571550
H6311	H631	0.672200	0.696100	0.559800
C8441	C844	0.677490	0.685080	0.600950
C8451	C845	0.650040	0.694860	0.612390
C8461	C846	0.649700	0.671790	0.632050
C8471	C847	0.668430	0.651430	0.632960
C8481	C848	0.685190	0.661460	0.609430
C8491	C849	0.710560	0.643960	0.601040
H6321	H632	0.717900	0.629300	0.609500
C8501	C850	0.658660	0.718110	0.622680
H6331	H633	0.658300	0.731500	0.609200
H6341	H634	0.676400	0.716000	0.629100
H6351	H635	0.647300	0.723300	0.637100
C8511	C851	0.627850	0.689380	0.591360
H6361	H636	0.626500	0.670700	0.588300
H6371	H637	0.632200	0.698200	0.575100
H6381	H638	0.611200	0.695900	0.597800
C8521	C852	0.720080	0.658790	0.573870
H6391	H639	0.734200	0.651800	0.564300
O1431	O143	0.735720	0.183840	0.029960
O1441	O144	0.702400	0.209900	0.028400
C8531	C853	0.712750	0.192470	0.036260
C8541	C854	0.706710	0.183430	0.063960
C8551	C855	0.684670	0.189210	0.071550
H6401	H640	0.672200	0.196100	0.059800
C8561	C856	0.677490	0.185080	0.100950
C8571	C857	0.650040	0.194860	0.112390
C8581	C858	0.649700	0.171790	0.132050
C8591	C859	0.668430	0.151430	0.132960
C8601	C860	0.685190	0.161460	0.109430
C8611	C861	0.710560	0.143960	0.101040
H6411	H641	0.717900	0.129300	0.109500
C8621	C862	0.658660	0.218110	0.122680
H6421	H642	0.658300	0.231500	0.109200
H6431	H643	0.676400	0.216000	0.129100
H6441	H644	0.647300	0.223300	0.137100
C8631	C863	0.627850	0.189380	0.091360
H6451	H645	0.626500	0.170700	0.088300
H6461	H646	0.632200	0.198200	0.075100
H6471	H647	0.611200	0.195900	0.097800
C8641	C864	0.720080	0.158790	0.073870
H6481	H648	0.734200	0.151800	0.064300
O1451	O145	0.235720	0.316160	0.970040
O1461	O146	0.202400	0.290100	0.971600
C8651	C865	0.212750	0.307530	0.963740
C8661	C866	0.206710	0.316570	0.936040
C8671	C867	0.184670	0.310790	0.928450
H6491	H649	0.172200	0.303900	0.940200
C8681	C868	0.177490	0.314920	0.899050
C8691	C869	0.150040	0.305140	0.887610
C8701	C870	0.149700	0.328210	0.867950
C8711	C871	0.168430	0.348570	0.867040
C8721	C872	0.185190	0.338540	0.890570
C8731	C873	0.210560	0.356040	0.898960
H6501	H650	0.217900	0.370700	0.890500
C8741	C874	0.158660	0.281890	0.877320
H6511	H651	0.158300	0.268500	0.890800
H6521	H652	0.176400	0.284000	0.870900
H6531	H653	0.147300	0.276700	0.862900
C8751	C875	0.127850	0.310620	0.908640
H6541	H654	0.126500	0.329300	0.911700
H6551	H655	0.132200	0.301800	0.924900
H6561	H656	0.111200	0.304100	0.902200
C8761	C876	0.220080	0.341210	0.926130
H6571	H657	0.234200	0.348200	0.935700
O1471	O147	0.235720	0.816160	0.470040
O1481	O148	0.202400	0.790100	0.471600
C8771	C877	0.212750	0.807530	0.463740
C8781	C878	0.206710	0.816570	0.436040
C8791	C879	0.184670	0.810790	0.428450
H6581	H658	0.172200	0.803900	0.440200
C8801	C880	0.177490	0.814920	0.399050
C8811	C881	0.150040	0.805140	0.387610
C8821	C882	0.149700	0.828210	0.367950
C8831	C883	0.168430	0.848570	0.367040
C8841	C884	0.185190	0.838540	0.390570
C8851	C885	0.210560	0.856040	0.398960
H6591	H659	0.217900	0.870700	0.390500
C8861	C886	0.158660	0.781890	0.377320
H6601	H660	0.158300	0.768500	0.390800
H6611	H661	0.176400	0.784000	0.370900
H6621	H662	0.147300	0.776700	0.362900
C8871	C887	0.127850	0.810620	0.408640
H6631	H663	0.126500	0.829300	0.411700
H6641	H664	0.132200	0.801800	0.424900
H6651	H665	0.111200	0.804100	0.402200
C8881	C888	0.220080	0.841210	0.426130
H6661	H666	0.234200	0.848200	0.435700
O1491	O149	0.735720	0.316160	0.470040
O1501	O150	0.702400	0.290100	0.471600
C8891	C889	0.712750	0.307530	0.463740
C8901	C890	0.706710	0.316570	0.436040
C8911	C891	0.684670	0.310790	0.428450
H6671	H667	0.672200	0.303900	0.440200
C8921	C892	0.677490	0.314920	0.399050
C8931	C893	0.650040	0.305140	0.387610
C8941	C894	0.649700	0.328210	0.367950
C8951	C895	0.668430	0.348570	0.367040
C8961	C896	0.685190	0.338540	0.390570
C8971	C897	0.710560	0.356040	0.398960
H6681	H668	0.717900	0.370700	0.390500
C8981	C898	0.658660	0.281890	0.377320
H6691	H669	0.658300	0.268500	0.390800
H6701	H670	0.676400	0.284000	0.370900
H6711	H671	0.647300	0.276700	0.362900
C8991	C899	0.627850	0.310620	0.408640
H6721	H672	0.626500	0.329300	0.411700
H6731	H673	0.632200	0.301800	0.424900
H6741	H674	0.611200	0.304100	0.402200
C9001	C900	0.720080	0.341210	0.426130
H6751	H675	0.734200	0.348200	0.435700
O1511	O151	0.735720	0.816160	0.970040
O1521	O152	0.702400	0.790100	0.971600
C9011	C901	0.712750	0.807530	0.963740
C9021	C902	0.706710	0.816570	0.936040
C9031	C903	0.684670	0.810790	0.928450
H6761	H676	0.672200	0.803900	0.940200
C9041	C904	0.677490	0.814920	0.899050
C9051	C905	0.650040	0.805140	0.887610
C9061	C906	0.649700	0.828210	0.867950
C9071	C907	0.668430	0.848570	0.867040
C9081	C908	0.685190	0.838540	0.890570
C9091	C909	0.710560	0.856040	0.898960
H6771	H677	0.717900	0.870700	0.890500
C9101	C910	0.658660	0.781890	0.877320
H6781	H678	0.658300	0.768500	0.890800
H6791	H679	0.676400	0.784000	0.870900
H6801	H680	0.647300	0.776700	0.862900
C9111	C911	0.627850	0.810620	0.908640
H6811	H681	0.626500	0.829300	0.911700
H6821	H682	0.632200	0.801800	0.924900
H6831	H683	0.611200	0.804100	0.902200
C9121	C912	0.720080	0.841210	0.926130
H6841	H684	0.734200	0.848200	0.935700
O1531	O153	0.764280	0.316160	0.029960
O1541	O154	0.797600	0.290100	0.028400
C9131	C913	0.787250	0.307530	0.036260
C9141	C914	0.793290	0.316570	0.063960
C9151	C915	0.815330	0.310790	0.071550
H6851	H685	0.827800	0.303900	0.059800
C9161	C916	0.822510	0.314920	0.100950
C9171	C917	0.849960	0.305140	0.112390
C9181	C918	0.850300	0.328210	0.132050
C9191	C919	0.831570	0.348570	0.132960
C9201	C920	0.814810	0.338540	0.109430
C9211	C921	0.789440	0.356040	0.101040
H6861	H686	0.782100	0.370700	0.109500
C9221	C922	0.841340	0.281890	0.122680
H6871	H687	0.841700	0.268500	0.109200
H6881	H688	0.823600	0.284000	0.129100
H6891	H689	0.852700	0.276700	0.137100
C9231	C923	0.872150	0.310620	0.091360
H6901	H690	0.873500	0.329300	0.088300
H6911	H691	0.867800	0.301800	0.075100
H6921	H692	0.888800	0.304100	0.097800
C9241	C924	0.779920	0.341210	0.073870
H6931	H693	0.765800	0.348200	0.064300
O1551	O155	0.764280	0.816160	0.529960
O1561	O156	0.797600	0.790100	0.528400
C9251	C925	0.787250	0.807530	0.536260
C9261	C926	0.793290	0.816570	0.563960
C9271	C927	0.815330	0.810790	0.571550
H6941	H694	0.827800	0.803900	0.559800
C9281	C928	0.822510	0.814920	0.600950
C9291	C929	0.849960	0.805140	0.612390
C9301	C930	0.850300	0.828210	0.632050
C9311	C931	0.831570	0.848570	0.632960
C9321	C932	0.814810	0.838540	0.609430
C9331	C933	0.789440	0.856040	0.601040
H6951	H695	0.782100	0.870700	0.609500
C9341	C934	0.841340	0.781890	0.622680
H6961	H696	0.841700	0.768500	0.609200
H6971	H697	0.823600	0.784000	0.629100
H6981	H698	0.852700	0.776700	0.637100
C9351	C935	0.872150	0.810620	0.591360
H6991	H699	0.873500	0.829300	0.588300
H7001	H700	0.867800	0.801800	0.575100
H7011	H701	0.888800	0.804100	0.597800
C9361	C936	0.779920	0.841210	0.573870
H7021	H702	0.765800	0.848200	0.564300
O1571	O157	0.264280	0.316160	0.529960
O1581	O158	0.297600	0.290100	0.528400
C9371	C937	0.287250	0.307530	0.536260
C9381	C938	0.293290	0.316570	0.563960
C9391	C939	0.315330	0.310790	0.571550
H7031	H703	0.327800	0.303900	0.559800
C9401	C940	0.322510	0.314920	0.600950
C9411	C941	0.349960	0.305140	0.612390
C9421	C942	0.350300	0.328210	0.632050
C9431	C943	0.331570	0.348570	0.632960
C9441	C944	0.314810	0.338540	0.609430
C9451	C945	0.289440	0.356040	0.601040
H7041	H704	0.282100	0.370700	0.609500
C9461	C946	0.341340	0.281890	0.622680
H7051	H705	0.341700	0.268500	0.609200
H7061	H706	0.323600	0.284000	0.629100
H7071	H707	0.352700	0.276700	0.637100
C9471	C947	0.372150	0.310620	0.591360
H7081	H708	0.373500	0.329300	0.588300
H7091	H709	0.367800	0.301800	0.575100
H7101	H710	0.388800	0.304100	0.597800
C9481	C948	0.279920	0.341210	0.573870
H7111	H711	0.265800	0.348200	0.564300
O1591	O159	0.264280	0.816160	0.029960
O1601	O160	0.297600	0.790100	0.028400
C9491	C949	0.287250	0.807530	0.036260
C9501	C950	0.293290	0.816570	0.063960
C9511	C951	0.315330	0.810790	0.071550
H7121	H712	0.327800	0.803900	0.059800
C9521	C952	0.322510	0.814920	0.100950
C9531	C953	0.349960	0.805140	0.112390
C9541	C954	0.350300	0.828210	0.132050
C9551	C955	0.331570	0.848570	0.132960
C9561	C956	0.314810	0.838540	0.109430
C9571	C957	0.289440	0.856040	0.101040
H7131	H713	0.282100	0.870700	0.109500
C9581	C958	0.341340	0.781890	0.122680
H7141	H714	0.341700	0.768500	0.109200
H7151	H715	0.323600	0.784000	0.129100
H7161	H716	0.352700	0.776700	0.137100
C9591	C959	0.372150	0.810620	0.091360
H7171	H717	0.373500	0.829300	0.088300
H7181	H718	0.367800	0.801800	0.075100
H7191	H719	0.388800	0.804100	0.097800
C9601	C960	0.279920	0.841210	0.073870
H7201	H720	0.265800	0.848200	0.064300
O1611	O161	0.683840	0.029960	0.235720
O1621	O162	0.709900	0.028400	0.202400
C9611	C961	0.692470	0.036260	0.212750
C9621	C962	0.683430	0.063960	0.206710
C9631	C963	0.689210	0.071550	0.184670
H7211	H721	0.696100	0.059800	0.172200
C9641	C964	0.685080	0.100950	0.177490
C9651	C965	0.694860	0.112390	0.150040
C9661	C966	0.671790	0.132050	0.149700
C9671	C967	0.651430	0.132960	0.168430
C9681	C968	0.661460	0.109430	0.185190
C9691	C969	0.643960	0.101040	0.210560
H7221	H722	0.629300	0.109500	0.217900
C9701	C970	0.718110	0.122680	0.158660
H7231	H723	0.731500	0.109200	0.158300
H7241	H724	0.716000	0.129100	0.176400
H7251	H725	0.723300	0.137100	0.147300
C9711	C971	0.689380	0.091360	0.127850
H7261	H726	0.670700	0.088300	0.126500
H7271	H727	0.698200	0.075100	0.132200
H7281	H728	0.695900	0.097800	0.111200
C9721	C972	0.658790	0.073870	0.220080
H7291	H729	0.651800	0.064300	0.234200
O1631	O163	0.683840	0.529960	0.735720
O1641	O164	0.709900	0.528400	0.702400
C9731	C973	0.692470	0.536260	0.712750
C9741	C974	0.683430	0.563960	0.706710
C9751	C975	0.689210	0.571550	0.684670
H7301	H730	0.696100	0.559800	0.672200
C9761	C976	0.685080	0.600950	0.677490
C9771	C977	0.694860	0.612390	0.650040
C9781	C978	0.671790	0.632050	0.649700
C9791	C979	0.651430	0.632960	0.668430
C9801	C980	0.661460	0.609430	0.685190
C9811	C981	0.643960	0.601040	0.710560
H7311	H731	0.629300	0.609500	0.717900
C9821	C982	0.718110	0.622680	0.658660
H7321	H732	0.731500	0.609200	0.658300
H7331	H733	0.716000	0.629100	0.676400
H7341	H734	0.723300	0.637100	0.647300
C9831	C983	0.689380	0.591360	0.627850
H7351	H735	0.670700	0.588300	0.626500
H7361	H736	0.698200	0.575100	0.632200
H7371	H737	0.695900	0.597800	0.611200
C9841	C984	0.658790	0.573870	0.720080
H7381	H738	0.651800	0.564300	0.734200
O1651	O165	0.183840	0.029960	0.735720
O1661	O166	0.209900	0.028400	0.702400
C9851	C985	0.192470	0.036260	0.712750
C9861	C986	0.183430	0.063960	0.706710
C9871	C987	0.189210	0.071550	0.684670
H7391	H739	0.196100	0.059800	0.672200
C9881	C988	0.185080	0.100950	0.677490
C9891	C989	0.194860	0.112390	0.650040
C9901	C990	0.171790	0.132050	0.649700
C9911	C991	0.151430	0.132960	0.668430
C9921	C992	0.161460	0.109430	0.685190
C9931	C993	0.143960	0.101040	0.710560
H7401	H740	0.129300	0.109500	0.717900
C9941	C994	0.218110	0.122680	0.658660
H7411	H741	0.231500	0.109200	0.658300
H7421	H742	0.216000	0.129100	0.676400
H7431	H743	0.223300	0.137100	0.647300
C9951	C995	0.189380	0.091360	0.627850
H7441	H744	0.170700	0.088300	0.626500
H7451	H745	0.198200	0.075100	0.632200
H7461	H746	0.195900	0.097800	0.611200
C9961	C996	0.158790	0.073870	0.720080
H7471	H747	0.151800	0.064300	0.734200
O1671	O167	0.183840	0.529960	0.235720
O1681	O168	0.209900	0.528400	0.202400
C9971	C997	0.192470	0.536260	0.212750
C9981	C998	0.183430	0.563960	0.206710
C9991	C999	0.189210	0.571550	0.184670
H7481	H748	0.196100	0.559800	0.172200
C10001	C1000	0.185080	0.600950	0.177490
C10011	C1001	0.194860	0.612390	0.150040
C10021	C1002	0.171790	0.632050	0.149700
C10031	C1003	0.151430	0.632960	0.168430
C10041	C1004	0.161460	0.609430	0.185190
C10051	C1005	0.143960	0.601040	0.210560
H7491	H749	0.129300	0.609500	0.217900
C10061	C1006	0.218110	0.622680	0.158660
H7501	H750	0.231500	0.609200	0.158300
H7511	H751	0.216000	0.629100	0.176400
H7521	H752	0.223300	0.637100	0.147300
C10071	C1007	0.189380	0.591360	0.127850
H7531	H753	0.170700	0.588300	0.126500
H7541	H754	0.198200	0.575100	0.132200
H7551	H755	0.195900	0.597800	0.111200
C10081	C1008	0.158790	0.573870	0.220080
H7561	H756	0.151800	0.564300	0.234200
O1691	O169	0.683840	0.970040	0.764280
O1701	O170	0.709900	0.971600	0.797600
C10091	C1009	0.692470	0.963740	0.787250
C10101	C1010	0.683430	0.936040	0.793290
C10111	C1011	0.689210	0.928450	0.815330
H7571	H757	0.696100	0.940200	0.827800
C10121	C1012	0.685080	0.899050	0.822510
C10131	C1013	0.694860	0.887610	0.849960
C10141	C1014	0.671790	0.867950	0.850300
C10151	C1015	0.651430	0.867040	0.831570
C10161	C1016	0.661460	0.890570	0.814810
C10171	C1017	0.643960	0.898960	0.789440
H7581	H758	0.629300	0.890500	0.782100
C10181	C1018	0.718110	0.877320	0.841340
H7591	H759	0.731500	0.890800	0.841700
H7601	H760	0.716000	0.870900	0.823600
H7611	H761	0.723300	0.862900	0.852700
C10191	C1019	0.689380	0.908640	0.872150
H7621	H762	0.670700	0.911700	0.873500
H7631	H763	0.698200	0.924900	0.867800
H7641	H764	0.695900	0.902200	0.888800
C10201	C1020	0.658790	0.926130	0.779920
H7651	H765	0.651800	0.935700	0.765800
O1711	O171	0.683840	0.470040	0.264280
O1721	O172	0.709900	0.471600	0.297600
C10211	C1021	0.692470	0.463740	0.287250
C10221	C1022	0.683430	0.436040	0.293290
C10231	C1023	0.689210	0.428450	0.315330
H7661	H766	0.696100	0.440200	0.327800
C10241	C1024	0.685080	0.399050	0.322510
C10251	C1025	0.694860	0.387610	0.349960
C10261	C1026	0.671790	0.367950	0.350300
C10271	C1027	0.651430	0.367040	0.331570
C10281	C1028	0.661460	0.390570	0.314810
C10291	C1029	0.643960	0.398960	0.289440
H7671	H767	0.629300	0.390500	0.282100
C10301	C1030	0.718110	0.377320	0.341340
H7681	H768	0.731500	0.390800	0.341700
H7691	H769	0.716000	0.370900	0.323600
H7701	H770	0.723300	0.362900	0.352700
C10311	C1031	0.689380	0.408640	0.372150
H7711	H771	0.670700	0.411700	0.373500
H7721	H772	0.698200	0.424900	0.367800
H7731	H773	0.695900	0.402200	0.388800
C10321	C1032	0.658790	0.426130	0.279920
H7741	H774	0.651800	0.435700	0.265800
O1731	O173	0.183840	0.970040	0.264280
O1741	O174	0.209900	0.971600	0.297600
C10331	C1033	0.192470	0.963740	0.287250
C10341	C1034	0.183430	0.936040	0.293290
C10351	C1035	0.189210	0.928450	0.315330
H7751	H775	0.196100	0.940200	0.327800
C10361	C1036	0.185080	0.899050	0.322510
C10371	C1037	0.194860	0.887610	0.349960
C10381	C1038	0.171790	0.867950	0.350300
C10391	C1039	0.151430	0.867040	0.331570
C10401	C1040	0.161460	0.890570	0.314810
C10411	C1041	0.143960	0.898960	0.289440
H7761	H776	0.129300	0.890500	0.282100
C10421	C1042	0.218110	0.877320	0.341340
H7771	H777	0.231500	0.890800	0.341700
H7781	H778	0.216000	0.870900	0.323600
H7791	H779	0.223300	0.862900	0.352700
C10431	C1043	0.189380	0.908640	0.372150
H7801	H780	0.170700	0.911700	0.373500
H7811	H781	0.198200	0.924900	0.367800
H7821	H782	0.195900	0.902200	0.388800
C10441	C1044	0.158790	0.926130	0.279920
H7831	H783	0.151800	0.935700	0.265800
O1751	O175	0.183840	0.470040	0.764280
O1761	O176	0.209900	0.471600	0.797600
C10451	C1045	0.192470	0.463740	0.787250
C10461	C1046	0.183430	0.436040	0.793290
C10471	C1047	0.189210	0.428450	0.815330
H7841	H784	0.196100	0.440200	0.827800
C10481	C1048	0.185080	0.399050	0.822510
C10491	C1049	0.194860	0.387610	0.849960
C10501	C1050	0.171790	0.367950	0.850300
C10511	C1051	0.151430	0.367040	0.831570
C10521	C1052	0.161460	0.390570	0.814810
C10531	C1053	0.143960	0.398960	0.789440
H7851	H785	0.129300	0.390500	0.782100
C10541	C1054	0.218110	0.377320	0.841340
H7861	H786	0.231500	0.390800	0.841700
H7871	H787	0.216000	0.370900	0.823600
H7881	H788	0.223300	0.362900	0.852700
C10551	C1055	0.189380	0.408640	0.872150
H7891	H789	0.170700	0.411700	0.873500
H7901	H790	0.198200	0.424900	0.867800
H7911	H791	0.195900	0.402200	0.888800
C10561	C1056	0.158790	0.426130	0.779920
H7921	H792	0.151800	0.435700	0.765800
O1771	O177	0.316160	0.029960	0.764280
O1781	O178	0.290100	0.028400	0.797600
C10571	C1057	0.307530	0.036260	0.787250
C10581	C1058	0.316570	0.063960	0.793290
C10591	C1059	0.310790	0.071550	0.815330
H7931	H793	0.303900	0.059800	0.827800
C10601	C1060	0.314920	0.100950	0.822510
C10611	C1061	0.305140	0.112390	0.849960
C10621	C1062	0.328210	0.132050	0.850300
C10631	C1063	0.348570	0.132960	0.831570
C10641	C1064	0.338540	0.109430	0.814810
C10651	C1065	0.356040	0.101040	0.789440
H7941	H794	0.370700	0.109500	0.782100
C10661	C1066	0.281890	0.122680	0.841340
H7951	H795	0.268500	0.109200	0.841700
H7961	H796	0.284000	0.129100	0.823600
H7971	H797	0.276700	0.137100	0.852700
C10671	C1067	0.310620	0.091360	0.872150
H7981	H798	0.329300	0.088300	0.873500
H7991	H799	0.301800	0.075100	0.867800
H8001	H800	0.304100	0.097800	0.888800
C10681	C1068	0.341210	0.073870	0.779920
H8011	H801	0.348200	0.064300	0.765800
O1791	O179	0.316160	0.529960	0.264280
O1801	O180	0.290100	0.528400	0.297600
C10691	C1069	0.307530	0.536260	0.287250
C10701	C1070	0.316570	0.563960	0.293290
C10711	C1071	0.310790	0.571550	0.315330
H8021	H802	0.303900	0.559800	0.327800
C10721	C1072	0.314920	0.600950	0.322510
C10731	C1073	0.305140	0.612390	0.349960
C10741	C1074	0.328210	0.632050	0.350300
C10751	C1075	0.348570	0.632960	0.331570
C10761	C1076	0.338540	0.609430	0.314810
C10771	C1077	0.356040	0.601040	0.289440
H8031	H803	0.370700	0.609500	0.282100
C10781	C1078	0.281890	0.622680	0.341340
H8041	H804	0.268500	0.609200	0.341700
H8051	H805	0.284000	0.629100	0.323600
H8061	H806	0.276700	0.637100	0.352700
C10791	C1079	0.310620	0.591360	0.372150
H8071	H807	0.329300	0.588300	0.373500
H8081	H808	0.301800	0.575100	0.367800
H8091	H809	0.304100	0.597800	0.388800
C10801	C1080	0.341210	0.573870	0.279920
H8101	H810	0.348200	0.564300	0.265800
O1811	O181	0.816160	0.029960	0.264280
O1821	O182	0.790100	0.028400	0.297600
C10811	C1081	0.807530	0.036260	0.287250
C10821	C1082	0.816570	0.063960	0.293290
C10831	C1083	0.810790	0.071550	0.315330
H8111	H811	0.803900	0.059800	0.327800
C10841	C1084	0.814920	0.100950	0.322510
C10851	C1085	0.805140	0.112390	0.349960
C10861	C1086	0.828210	0.132050	0.350300
C10871	C1087	0.848570	0.132960	0.331570
C10881	C1088	0.838540	0.109430	0.314810
C10891	C1089	0.856040	0.101040	0.289440
H8121	H812	0.870700	0.109500	0.282100
C10901	C1090	0.781890	0.122680	0.341340
H8131	H813	0.768500	0.109200	0.341700
H8141	H814	0.784000	0.129100	0.323600
H8151	H815	0.776700	0.137100	0.352700
C10911	C1091	0.810620	0.091360	0.372150
H8161	H816	0.829300	0.088300	0.373500
H8171	H817	0.801800	0.075100	0.367800
H8181	H818	0.804100	0.097800	0.388800
C10921	C1092	0.841210	0.073870	0.279920
H8191	H819	0.848200	0.064300	0.265800
O1831	O183	0.816160	0.529960	0.764280
O1841	O184	0.790100	0.528400	0.797600
C10931	C1093	0.807530	0.536260	0.787250
C10941	C1094	0.816570	0.563960	0.793290
C10951	C1095	0.810790	0.571550	0.815330
H8201	H820	0.803900	0.559800	0.827800
C10961	C1096	0.814920	0.600950	0.822510
C10971	C1097	0.805140	0.612390	0.849960
C10981	C1098	0.828210	0.632050	0.850300
C10991	C1099	0.848570	0.632960	0.831570
C11001	C1100	0.838540	0.609430	0.814810
C11011	C1101	0.856040	0.601040	0.789440
H8211	H821	0.870700	0.609500	0.782100
C11021	C1102	0.781890	0.622680	0.841340
H8221	H822	0.768500	0.609200	0.841700
H8231	H823	0.784000	0.629100	0.823600
H8241	H824	0.776700	0.637100	0.852700
C11031	C1103	0.810620	0.591360	0.872150
H8251	H825	0.829300	0.588300	0.873500
H8261	H826	0.801800	0.575100	0.867800
H8271	H827	0.804100	0.597800	0.888800
C11041	C1104	0.841210	0.573870	0.779920
H8281	H828	0.848200	0.564300	0.765800
O1851	O185	0.316160	0.970040	0.235720
O1861	O186	0.290100	0.971600	0.202400
C11051	C1105	0.307530	0.963740	0.212750
C11061	C1106	0.316570	0.936040	0.206710
C11071	C1107	0.310790	0.928450	0.184670
H8291	H829	0.303900	0.940200	0.172200
C11081	C1108	0.314920	0.899050	0.177490
C11091	C1109	0.305140	0.887610	0.150040
C11101	C1110	0.328210	0.867950	0.149700
C11111	C1111	0.348570	0.867040	0.168430
C11121	C1112	0.338540	0.890570	0.185190
C11131	C1113	0.356040	0.898960	0.210560
H8301	H830	0.370700	0.890500	0.217900
C11141	C1114	0.281890	0.877320	0.158660
H8311	H831	0.268500	0.890800	0.158300
H8321	H832	0.284000	0.870900	0.176400
H8331	H833	0.276700	0.862900	0.147300
C11151	C1115	0.310620	0.908640	0.127850
H8341	H834	0.329300	0.911700	0.126500
H8351	H835	0.301800	0.924900	0.132200
H8361	H836	0.304100	0.902200	0.111200
C11161	C1116	0.341210	0.926130	0.220080
H8371	H837	0.348200	0.935700	0.234200
O1871	O187	0.316160	0.470040	0.735720
O1881	O188	0.290100	0.471600	0.702400
C11171	C1117	0.307530	0.463740	0.712750
C11181	C1118	0.316570	0.436040	0.706710
C11191	C1119	0.310790	0.428450	0.684670
H8381	H838	0.303900	0.440200	0.672200
C11201	C1120	0.314920	0.399050	0.677490
C11211	C1121	0.305140	0.387610	0.650040
C11221	C1122	0.328210	0.367950	0.649700
C11231	C1123	0.348570	0.367040	0.668430
C11241	C1124	0.338540	0.390570	0.685190
C11251	C1125	0.356040	0.398960	0.710560
H8391	H839	0.370700	0.390500	0.717900
C11261	C1126	0.281890	0.377320	0.658660
H8401	H840	0.268500	0.390800	0.658300
H8411	H841	0.284000	0.370900	0.676400
H8421	H842	0.276700	0.362900	0.647300
C11271	C1127	0.310620	0.408640	0.627850
H8431	H843	0.329300	0.411700	0.626500
H8441	H844	0.301800	0.424900	0.632200
H8451	H845	0.304100	0.402200	0.611200
C11281	C1128	0.341210	0.426130	0.720080
H8461	H846	0.348200	0.435700	0.734200
O1891	O189	0.816160	0.970040	0.735720
O1901	O190	0.790100	0.971600	0.702400
C11291	C1129	0.807530	0.963740	0.712750
C11301	C1130	0.816570	0.936040	0.706710
C11311	C1131	0.810790	0.928450	0.684670
H8471	H847	0.803900	0.940200	0.672200
C11321	C1132	0.814920	0.899050	0.677490
C11331	C1133	0.805140	0.887610	0.650040
C11341	C1134	0.828210	0.867950	0.649700
C11351	C1135	0.848570	0.867040	0.668430
C11361	C1136	0.838540	0.890570	0.685190
C11371	C1137	0.856040	0.898960	0.710560
H8481	H848	0.870700	0.890500	0.717900
C11381	C1138	0.781890	0.877320	0.658660
H8491	H849	0.768500	0.890800	0.658300
H8501	H850	0.784000	0.870900	0.676400
H8511	H851	0.776700	0.862900	0.647300
C11391	C1139	0.810620	0.908640	0.627850
H8521	H852	0.829300	0.911700	0.626500
H8531	H853	0.801800	0.924900	0.632200
H8541	H854	0.804100	0.902200	0.611200
C11401	C1140	0.841210	0.926130	0.720080
H8551	H855	0.848200	0.935700	0.734200
O1911	O191	0.816160	0.470040	0.235720
O1921	O192	0.790100	0.471600	0.202400
C11411	C1141	0.807530	0.463740	0.212750
C11421	C1142	0.816570	0.436040	0.206710
C11431	C1143	0.810790	0.428450	0.184670
H8561	H856	0.803900	0.440200	0.172200
C11441	C1144	0.814920	0.399050	0.177490
C11451	C1145	0.805140	0.387610	0.150040
C11461	C1146	0.828210	0.367950	0.149700
C11471	C1147	0.848570	0.367040	0.168430
C11481	C1148	0.838540	0.390570	0.185190
C11491	C1149	0.856040	0.398960	0.210560
H8571	H857	0.870700	0.390500	0.217900
C11501	C1150	0.781890	0.377320	0.158660
H8581	H858	0.768500	0.390800	0.158300
H8591	H859	0.784000	0.370900	0.176400
H8601	H860	0.776700	0.362900	0.147300
C11511	C1151	0.810620	0.408640	0.127850
H8611	H861	0.829300	0.411700	0.126500
H8621	H862	0.801800	0.424900	0.132200
H8631	H863	0.804100	0.402200	0.111200
C11521	C1152	0.841210	0.426130	0.220080
H8641	H864	0.848200	0.435700	0.234200
O1931	O193	0.735720	0.470040	0.816160
O1941	O194	0.702400	0.471600	0.790100
C11531	C1153	0.712750	0.463740	0.807530
C11541	C1154	0.706710	0.436040	0.816570
C11551	C1155	0.684670	0.428450	0.810790
H8651	H865	0.672200	0.440200	0.803900
C11561	C1156	0.677490	0.399050	0.814920
C11571	C1157	0.650040	0.387610	0.805140
C11581	C1158	0.649700	0.367950	0.828210
C11591	C1159	0.668430	0.367040	0.848570
C11601	C1160	0.685190	0.390570	0.838540
C11611	C1161	0.710560	0.398960	0.856040
H8661	H866	0.717900	0.390500	0.870700
C11621	C1162	0.658660	0.377320	0.781890
H8671	H867	0.658300	0.390800	0.768500
H8681	H868	0.676400	0.370900	0.784000
H8691	H869	0.647300	0.362900	0.776700
C11631	C1163	0.627850	0.408640	0.810620
H8701	H870	0.626500	0.411700	0.829300
H8711	H871	0.632200	0.424900	0.801800
H8721	H872	0.611200	0.402200	0.804100
C11641	C1164	0.720080	0.426130	0.841210
H8731	H873	0.734200	0.435700	0.848200
O1951	O195	0.735720	0.970040	0.316160
O1961	O196	0.702400	0.971600	0.290100
C11651	C1165	0.712750	0.963740	0.307530
C11661	C1166	0.706710	0.936040	0.316570
C11671	C1167	0.684670	0.928450	0.310790
H8741	H874	0.672200	0.940200	0.303900
C11681	C1168	0.677490	0.899050	0.314920
C11691	C1169	0.650040	0.887610	0.305140
C11701	C1170	0.649700	0.867950	0.328210
C11711	C1171	0.668430	0.867040	0.348570
C11721	C1172	0.685190	0.890570	0.338540
C11731	C1173	0.710560	0.898960	0.356040
H8751	H875	0.717900	0.890500	0.370700
C11741	C1174	0.658660	0.877320	0.281890
H8761	H876	0.658300	0.890800	0.268500
H8771	H877	0.676400	0.870900	0.284000
H8781	H878	0.647300	0.862900	0.276700
C11751	C1175	0.627850	0.908640	0.310620
H8791	H879	0.626500	0.911700	0.329300
H8801	H880	0.632200	0.924900	0.301800
H8811	H881	0.611200	0.902200	0.304100
C11761	C1176	0.720080	0.926130	0.341210
H8821	H882	0.734200	0.935700	0.348200
O1971	O197	0.235720	0.470040	0.316160
O1981	O198	0.202400	0.471600	0.290100
C11771	C1177	0.212750	0.463740	0.307530
C11781	C1178	0.206710	0.436040	0.316570
C11791	C1179	0.184670	0.428450	0.310790
H8831	H883	0.172200	0.440200	0.303900
C11801	C1180	0.177490	0.399050	0.314920
C11811	C1181	0.150040	0.387610	0.305140
C11821	C1182	0.149700	0.367950	0.328210
C11831	C1183	0.168430	0.367040	0.348570
C11841	C1184	0.185190	0.390570	0.338540
C11851	C1185	0.210560	0.398960	0.356040
H8841	H884	0.217900	0.390500	0.370700
C11861	C1186	0.158660	0.377320	0.281890
H8851	H885	0.158300	0.390800	0.268500
H8861	H886	0.176400	0.370900	0.284000
H8871	H887	0.147300	0.362900	0.276700
C11871	C1187	0.127850	0.408640	0.310620
H8881	H888	0.126500	0.411700	0.329300
H8891	H889	0.132200	0.424900	0.301800
H8901	H890	0.111200	0.402200	0.304100
C11881	C1188	0.220080	0.426130	0.341210
H8911	H891	0.234200	0.435700	0.348200
O1991	O199	0.235720	0.970040	0.816160
O2001	O200	0.202400	0.971600	0.790100
C11891	C1189	0.212750	0.963740	0.807530
C11901	C1190	0.206710	0.936040	0.816570
C11911	C1191	0.184670	0.928450	0.810790
H8921	H892	0.172200	0.940200	0.803900
C11921	C1192	0.177490	0.899050	0.814920
C11931	C1193	0.150040	0.887610	0.805140
C11941	C1194	0.149700	0.867950	0.828210
C11951	C1195	0.168430	0.867040	0.848570
C11961	C1196	0.185190	0.890570	0.838540
C11971	C1197	0.210560	0.898960	0.856040
H8931	H893	0.217900	0.890500	0.870700
C11981	C1198	0.158660	0.877320	0.781890
H8941	H894	0.158300	0.890800	0.768500
H8951	H895	0.176400	0.870900	0.784000
H8961	H896	0.147300	0.862900	0.776700
C11991	C1199	0.127850	0.908640	0.810620
H8971	H897	0.126500	0.911700	0.829300
H8981	H898	0.132200	0.924900	0.801800
H8991	H899	0.111200	0.902200	0.804100
C12001	C1200	0.220080	0.926130	0.841210
H9001	H900	0.234200	0.935700	0.848200
O2011	O201	0.264280	0.529960	0.816160
O2021	O202	0.297600	0.528400	0.790100
C12011	C1201	0.287250	0.536260	0.807530
C12021	C1202	0.293290	0.563960	0.816570
C12031	C1203	0.315330	0.571550	0.810790
H9011	H901	0.327800	0.559800	0.803900
C12041	C1204	0.322510	0.600950	0.814920
C12051	C1205	0.349960	0.612390	0.805140
C12061	C1206	0.350300	0.632050	0.828210
C12071	C1207	0.331570	0.632960	0.848570
C12081	C1208	0.314810	0.609430	0.838540
C12091	C1209	0.289440	0.601040	0.856040
H9021	H902	0.282100	0.609500	0.870700
C12101	C1210	0.341340	0.622680	0.781890
H9031	H903	0.341700	0.609200	0.768500
H9041	H904	0.323600	0.629100	0.784000
H9051	H905	0.352700	0.637100	0.776700
C12111	C1211	0.372150	0.591360	0.810620
H9061	H906	0.373500	0.588300	0.829300
H9071	H907	0.367800	0.575100	0.801800
H9081	H908	0.388800	0.597800	0.804100
C12121	C1212	0.279920	0.573870	0.841210
H9091	H909	0.265800	0.564300	0.848200
O2031	O203	0.264280	0.029960	0.316160
O2041	O204	0.297600	0.028400	0.290100
C12131	C1213	0.287250	0.036260	0.307530
C12141	C1214	0.293290	0.063960	0.316570
C12151	C1215	0.315330	0.071550	0.310790
H9101	H910	0.327800	0.059800	0.303900
C12161	C1216	0.322510	0.100950	0.314920
C12171	C1217	0.349960	0.112390	0.305140
C12181	C1218	0.350300	0.132050	0.328210
C12191	C1219	0.331570	0.132960	0.348570
C12201	C1220	0.314810	0.109430	0.338540
C12211	C1221	0.289440	0.101040	0.356040
H9111	H911	0.282100	0.109500	0.370700
C12221	C1222	0.341340	0.122680	0.281890
H9121	H912	0.341700	0.109200	0.268500
H9131	H913	0.323600	0.129100	0.284000
H9141	H914	0.352700	0.137100	0.276700
C12231	C1223	0.372150	0.091360	0.310620
H9151	H915	0.373500	0.088300	0.329300
H9161	H916	0.367800	0.075100	0.301800
H9171	H917	0.388800	0.097800	0.304100
C12241	C1224	0.279920	0.073870	0.341210
H9181	H918	0.265800	0.064300	0.348200
O2051	O205	0.764280	0.529960	0.316160
O2061	O206	0.797600	0.528400	0.290100
C12251	C1225	0.787250	0.536260	0.307530
C12261	C1226	0.793290	0.563960	0.316570
C12271	C1227	0.815330	0.571550	0.310790
H9191	H919	0.827800	0.559800	0.303900
C12281	C1228	0.822510	0.600950	0.314920
C12291	C1229	0.849960	0.612390	0.305140
C12301	C1230	0.850300	0.632050	0.328210
C12311	C1231	0.831570	0.632960	0.348570
C12321	C1232	0.814810	0.609430	0.338540
C12331	C1233	0.789440	0.601040	0.356040
H9201	H920	0.782100	0.609500	0.370700
C12341	C1234	0.841340	0.622680	0.281890
H9211	H921	0.841700	0.609200	0.268500
H9221	H922	0.823600	0.629100	0.284000
H9231	H923	0.852700	0.637100	0.276700
C12351	C1235	0.872150	0.591360	0.310620
H9241	H924	0.873500	0.588300	0.329300
H9251	H925	0.867800	0.575100	0.301800
H9261	H926	0.888800	0.597800	0.304100
C12361	C1236	0.779920	0.573870	0.341210
H9271	H927	0.765800	0.564300	0.348200
O2071	O207	0.764280	0.029960	0.816160
O2081	O208	0.797600	0.028400	0.790100
C12371	C1237	0.787250	0.036260	0.807530
C12381	C1238	0.793290	0.063960	0.816570
C12391	C1239	0.815330	0.071550	0.810790
H9281	H928	0.827800	0.059800	0.803900
C12401	C1240	0.822510	0.100950	0.814920
C12411	C1241	0.849960	0.112390	0.805140
C12421	C1242	0.850300	0.132050	0.828210
C12431	C1243	0.831570	0.132960	0.848570
C12441	C1244	0.814810	0.109430	0.838540
C12451	C1245	0.789440	0.101040	0.856040
H9291	H929	0.782100	0.109500	0.870700
C12461	C1246	0.841340	0.122680	0.781890
H9301	H930	0.841700	0.109200	0.768500
H9311	H931	0.823600	0.129100	0.784000
H9321	H932	0.852700	0.137100	0.776700
C12471	C1247	0.872150	0.091360	0.810620
H9331	H933	0.873500	0.088300	0.829300
H9341	H934	0.867800	0.075100	0.801800
H9351	H935	0.888800	0.097800	0.804100
C12481	C1248	0.779920	0.073870	0.841210
H9361	H936	0.765800	0.064300	0.848200
O2091	O209	0.264280	0.470040	0.183840
O2101	O210	0.297600	0.471600	0.209900
C12491	C1249	0.287250	0.463740	0.192470
C12501	C1250	0.293290	0.436040	0.183430
C12511	C1251	0.315330	0.428450	0.189210
H9371	H937	0.327800	0.440200	0.196100
C12521	C1252	0.322510	0.399050	0.185080
C12531	C1253	0.349960	0.387610	0.194860
C12541	C1254	0.350300	0.367950	0.171790
C12551	C1255	0.331570	0.367040	0.151430
C12561	C1256	0.314810	0.390570	0.161460
C12571	C1257	0.289440	0.398960	0.143960
H9381	H938	0.282100	0.390500	0.129300
C12581	C1258	0.341340	0.377320	0.218110
H9391	H939	0.341700	0.390800	0.231500
H9401	H940	0.323600	0.370900	0.216000
H9411	H941	0.352700	0.362900	0.223300
C12591	C1259	0.372150	0.408640	0.189380
H9421	H942	0.373500	0.411700	0.170700
H9431	H943	0.367800	0.424900	0.198200
H9441	H944	0.388800	0.402200	0.195900
C12601	C1260	0.279920	0.426130	0.158790
H9451	H945	0.265800	0.435700	0.151800
O2111	O211	0.264280	0.970040	0.683840
O2121	O212	0.297600	0.971600	0.709900
C12611	C1261	0.287250	0.963740	0.692470
C12621	C1262	0.293290	0.936040	0.683430
C12631	C1263	0.315330	0.928450	0.689210
H9461	H946	0.327800	0.940200	0.696100
C12641	C1264	0.322510	0.899050	0.685080
C12651	C1265	0.349960	0.887610	0.694860
C12661	C1266	0.350300	0.867950	0.671790
C12671	C1267	0.331570	0.867040	0.651430
C12681	C1268	0.314810	0.890570	0.661460
C12691	C1269	0.289440	0.898960	0.643960
H9471	H947	0.282100	0.890500	0.629300
C12701	C1270	0.341340	0.877320	0.718110
H9481	H948	0.341700	0.890800	0.731500
H9491	H949	0.323600	0.870900	0.716000
H9501	H950	0.352700	0.862900	0.723300
C12711	C1271	0.372150	0.908640	0.689380
H9511	H951	0.373500	0.911700	0.670700
H9521	H952	0.367800	0.924900	0.698200
H9531	H953	0.388800	0.902200	0.695900
C12721	C1272	0.279920	0.926130	0.658790
H9541	H954	0.265800	0.935700	0.651800
O2131	O213	0.764280	0.470040	0.683840
O2141	O214	0.797600	0.471600	0.709900
C12731	C1273	0.787250	0.463740	0.692470
C12741	C1274	0.793290	0.436040	0.683430
C12751	C1275	0.815330	0.428450	0.689210
H9551	H955	0.827800	0.440200	0.696100
C12761	C1276	0.822510	0.399050	0.685080
C12771	C1277	0.849960	0.387610	0.694860
C12781	C1278	0.850300	0.367950	0.671790
C12791	C1279	0.831570	0.367040	0.651430
C12801	C1280	0.814810	0.390570	0.661460
C12811	C1281	0.789440	0.398960	0.643960
H9561	H956	0.782100	0.390500	0.629300
C12821	C1282	0.841340	0.377320	0.718110
H9571	H957	0.841700	0.390800	0.731500
H9581	H958	0.823600	0.370900	0.716000
H9591	H959	0.852700	0.362900	0.723300
C12831	C1283	0.872150	0.408640	0.689380
H9601	H960	0.873500	0.411700	0.670700
H9611	H961	0.867800	0.424900	0.698200
H9621	H962	0.888800	0.402200	0.695900
C12841	C1284	0.779920	0.426130	0.658790
H9631	H963	0.765800	0.435700	0.651800
O2151	O215	0.764280	0.970040	0.183840
O2161	O216	0.797600	0.971600	0.209900
C12851	C1285	0.787250	0.963740	0.192470
C12861	C1286	0.793290	0.936040	0.183430
C12871	C1287	0.815330	0.928450	0.189210
H9641	H964	0.827800	0.940200	0.196100
C12881	C1288	0.822510	0.899050	0.185080
C12891	C1289	0.849960	0.887610	0.194860
C12901	C1290	0.850300	0.867950	0.171790
C12911	C1291	0.831570	0.867040	0.151430
C12921	C1292	0.814810	0.890570	0.161460
C12931	C1293	0.789440	0.898960	0.143960
H9651	H965	0.782100	0.890500	0.129300
C12941	C1294	0.841340	0.877320	0.218110
H9661	H966	0.841700	0.890800	0.231500
H9671	H967	0.823600	0.870900	0.216000
H9681	H968	0.852700	0.862900	0.223300
C12951	C1295	0.872150	0.908640	0.189380
H9691	H969	0.873500	0.911700	0.170700
H9701	H970	0.867800	0.924900	0.198200
H9711	H971	0.888800	0.902200	0.195900
C12961	C1296	0.779920	0.926130	0.158790
H9721	H972	0.765800	0.935700	0.151800
O2171	O217	0.735720	0.529960	0.183840
O2181	O218	0.702400	0.528400	0.209900
C12971	C1297	0.712750	0.536260	0.192470
C12981	C1298	0.706710	0.563960	0.183430
C12991	C1299	0.684670	0.571550	0.189210
H9731	H973	0.672200	0.559800	0.196100
C13001	C1300	0.677490	0.600950	0.185080
C13011	C1301	0.650040	0.612390	0.194860
C13021	C1302	0.649700	0.632050	0.171790
C13031	C1303	0.668430	0.632960	0.151430
C13041	C1304	0.685190	0.609430	0.161460
C13051	C1305	0.710560	0.601040	0.143960
H9741	H974	0.717900	0.609500	0.129300
C13061	C1306	0.658660	0.622680	0.218110
H9751	H975	0.658300	0.609200	0.231500
H9761	H976	0.676400	0.629100	0.216000
H9771	H977	0.647300	0.637100	0.223300
C13071	C1307	0.627850	0.591360	0.189380
H9781	H978	0.626500	0.588300	0.170700
H9791	H979	0.632200	0.575100	0.198200
H9801	H980	0.611200	0.597800	0.195900
C13081	C1308	0.720080	0.573870	0.158790
H9811	H981	0.734200	0.564300	0.151800
O2191	O219	0.735720	0.029960	0.683840
O2201	O220	0.702400	0.028400	0.709900
C13091	C1309	0.712750	0.036260	0.692470
C13101	C1310	0.706710	0.063960	0.683430
C13111	C1311	0.684670	0.071550	0.689210
H9821	H982	0.672200	0.059800	0.696100
C13121	C1312	0.677490	0.100950	0.685080
C13131	C1313	0.650040	0.112390	0.694860
C13141	C1314	0.649700	0.132050	0.671790
C13151	C1315	0.668430	0.132960	0.651430
C13161	C1316	0.685190	0.109430	0.661460
C13171	C1317	0.710560	0.101040	0.643960
H9831	H983	0.717900	0.109500	0.629300
C13181	C1318	0.658660	0.122680	0.718110
H9841	H984	0.658300	0.109200	0.731500
H9851	H985	0.676400	0.129100	0.716000
H9861	H986	0.647300	0.137100	0.723300
C13191	C1319	0.627850	0.091360	0.689380
H9871	H987	0.626500	0.088300	0.670700
H9881	H988	0.632200	0.075100	0.698200
H9891	H989	0.611200	0.097800	0.695900
C13201	C1320	0.720080	0.073870	0.658790
H9901	H990	0.734200	0.064300	0.651800
O2211	O221	0.235720	0.529960	0.683840
O2221	O222	0.202400	0.528400	0.709900
C13211	C1321	0.212750	0.536260	0.692470
C13221	C1322	0.206710	0.563960	0.683430
C13231	C1323	0.184670	0.571550	0.689210
H9911	H991	0.172200	0.559800	0.696100
C13241	C1324	0.177490	0.600950	0.685080
C13251	C1325	0.150040	0.612390	0.694860
C13261	C1326	0.149700	0.632050	0.671790
C13271	C1327	0.168430	0.632960	0.651430
C13281	C1328	0.185190	0.609430	0.661460
C13291	C1329	0.210560	0.601040	0.643960
H9921	H992	0.217900	0.609500	0.629300
C13301	C1330	0.158660	0.622680	0.718110
H9931	H993	0.158300	0.609200	0.731500
H9941	H994	0.176400	0.629100	0.716000
H9951	H995	0.147300	0.637100	0.723300
C13311	C1331	0.127850	0.591360	0.689380
H9961	H996	0.126500	0.588300	0.670700
H9971	H997	0.132200	0.575100	0.698200
H9981	H998	0.111200	0.597800	0.695900
C13321	C1332	0.220080	0.573870	0.658790
H9991	H999	0.234200	0.564300	0.651800
O2231	O223	0.235720	0.029960	0.183840
O2241	O224	0.202400	0.028400	0.209900
C13331	C1333	0.212750	0.036260	0.192470
C13341	C1334	0.206710	0.063960	0.183430
C13351	C1335	0.184670	0.071550	0.189210
H10001	H1000	0.172200	0.059800	0.196100
C13361	C1336	0.177490	0.100950	0.185080
C13371	C1337	0.150040	0.112390	0.194860
C13381	C1338	0.149700	0.132050	0.171790
C13391	C1339	0.168430	0.132960	0.151430
C13401	C1340	0.185190	0.109430	0.161460
C13411	C1341	0.210560	0.101040	0.143960
H10011	H1001	0.217900	0.109500	0.129300
C13421	C1342	0.158660	0.122680	0.218110
H10021	H1002	0.158300	0.109200	0.231500
H10031	H1003	0.176400	0.129100	0.216000
H10041	H1004	0.147300	0.137100	0.223300
C13431	C1343	0.127850	0.091360	0.189380
H10051	H1005	0.126500	0.088300	0.170700
H10061	H1006	0.132200	0.075100	0.198200
H10071	H1007	0.111200	0.097800	0.195900
C13441	C1344	0.220080	0.073870	0.158790
H10081	H1008	0.234200	0.064300	0.151800
O2251	O225	0.816160	0.735720	0.470040
O2261	O226	0.790100	0.702400	0.471600
C13451	C1345	0.807530	0.712750	0.463740
C13461	C1346	0.816570	0.706710	0.436040
C13471	C1347	0.810790	0.684670	0.428450
H10091	H1009	0.803900	0.672200	0.440200
C13481	C1348	0.814920	0.677490	0.399050
C13491	C1349	0.805140	0.650040	0.387610
C13501	C1350	0.828210	0.649700	0.367950
C13511	C1351	0.848570	0.668430	0.367040
C13521	C1352	0.838540	0.685190	0.390570
C13531	C1353	0.856040	0.710560	0.398960
H10101	H1010	0.870700	0.717900	0.390500
C13541	C1354	0.781890	0.658660	0.377320
H10111	H1011	0.768500	0.658300	0.390800
H10121	H1012	0.784000	0.676400	0.370900
H10131	H1013	0.776700	0.647300	0.362900
C13551	C1355	0.810620	0.627850	0.408640
H10141	H1014	0.829300	0.626500	0.411700
H10151	H1015	0.801800	0.632200	0.424900
H10161	H1016	0.804100	0.611200	0.402200
C13561	C1356	0.841210	0.720080	0.426130
H10171	H1017	0.848200	0.734200	0.435700
O2271	O227	0.816160	0.235720	0.970040
O2281	O228	0.790100	0.202400	0.971600
C13571	C1357	0.807530	0.212750	0.963740
C13581	C1358	0.816570	0.206710	0.936040
C13591	C1359	0.810790	0.184670	0.928450
H10181	H1018	0.803900	0.172200	0.940200
C13601	C1360	0.814920	0.177490	0.899050
C13611	C1361	0.805140	0.150040	0.887610
C13621	C1362	0.828210	0.149700	0.867950
C13631	C1363	0.848570	0.168430	0.867040
C13641	C1364	0.838540	0.185190	0.890570
C13651	C1365	0.856040	0.210560	0.898960
H10191	H1019	0.870700	0.217900	0.890500
C13661	C1366	0.781890	0.158660	0.877320
H10201	H1020	0.768500	0.158300	0.890800
H10211	H1021	0.784000	0.176400	0.870900
H10221	H1022	0.776700	0.147300	0.862900
C13671	C1367	0.810620	0.127850	0.908640
H10231	H1023	0.829300	0.126500	0.911700
H10241	H1024	0.801800	0.132200	0.924900
H10251	H1025	0.804100	0.111200	0.902200
C13681	C1368	0.841210	0.220080	0.926130
H10261	H1026	0.848200	0.234200	0.935700
O2291	O229	0.316160	0.735720	0.970040
O2301	O230	0.290100	0.702400	0.971600
C13691	C1369	0.307530	0.712750	0.963740
C13701	C1370	0.316570	0.706710	0.936040
C13711	C1371	0.310790	0.684670	0.928450
H10271	H1027	0.303900	0.672200	0.940200
C13721	C1372	0.314920	0.677490	0.899050
C13731	C1373	0.305140	0.650040	0.887610
C13741	C1374	0.328210	0.649700	0.867950
C13751	C1375	0.348570	0.668430	0.867040
C13761	C1376	0.338540	0.685190	0.890570
C13771	C1377	0.356040	0.710560	0.898960
H10281	H1028	0.370700	0.717900	0.890500
C13781	C1378	0.281890	0.658660	0.877320
H10291	H1029	0.268500	0.658300	0.890800
H10301	H1030	0.284000	0.676400	0.870900
H10311	H1031	0.276700	0.647300	0.862900
C13791	C1379	0.310620	0.627850	0.908640
H10321	H1032	0.329300	0.626500	0.911700
H10331	H1033	0.301800	0.632200	0.924900
H10341	H1034	0.304100	0.611200	0.902200
C13801	C1380	0.341210	0.720080	0.926130
H10351	H1035	0.348200	0.734200	0.935700
O2311	O231	0.316160	0.235720	0.470040
O2321	O232	0.290100	0.202400	0.471600
C13811	C1381	0.307530	0.212750	0.463740
C13821	C1382	0.316570	0.206710	0.436040
C13831	C1383	0.310790	0.184670	0.428450
H10361	H1036	0.303900	0.172200	0.440200
C13841	C1384	0.314920	0.177490	0.399050
C13851	C1385	0.305140	0.150040	0.387610
C13861	C1386	0.328210	0.149700	0.367950
C13871	C1387	0.348570	0.168430	0.367040
C13881	C1388	0.338540	0.185190	0.390570
C13891	C1389	0.356040	0.210560	0.398960
H10371	H1037	0.370700	0.217900	0.390500
C13901	C1390	0.281890	0.158660	0.377320
H10381	H1038	0.268500	0.158300	0.390800
H10391	H1039	0.284000	0.176400	0.370900
H10401	H1040	0.276700	0.147300	0.362900
C13911	C1391	0.310620	0.127850	0.408640
H10411	H1041	0.329300	0.126500	0.411700
H10421	H1042	0.301800	0.132200	0.424900
H10431	H1043	0.304100	0.111200	0.402200
C13921	C1392	0.341210	0.220080	0.426130
H10441	H1044	0.348200	0.234200	0.435700
O2331	O233	0.816160	0.264280	0.529960
O2341	O234	0.790100	0.297600	0.528400
C13931	C1393	0.807530	0.287250	0.536260
C13941	C1394	0.816570	0.293290	0.563960
C13951	C1395	0.810790	0.315330	0.571550
H10451	H1045	0.803900	0.327800	0.559800
C13961	C1396	0.814920	0.322510	0.600950
C13971	C1397	0.805140	0.349960	0.612390
C13981	C1398	0.828210	0.350300	0.632050
C13991	C1399	0.848570	0.331570	0.632960
C14001	C1400	0.838540	0.314810	0.609430
C14011	C1401	0.856040	0.289440	0.601040
H10461	H1046	0.870700	0.282100	0.609500
C14021	C1402	0.781890	0.341340	0.622680
H10471	H1047	0.768500	0.341700	0.609200
H10481	H1048	0.784000	0.323600	0.629100
H10491	H1049	0.776700	0.352700	0.637100
C14031	C1403	0.810620	0.372150	0.591360
H10501	H1050	0.829300	0.373500	0.588300
H10511	H1051	0.801800	0.367800	0.575100
H10521	H1052	0.804100	0.388800	0.597800
C14041	C1404	0.841210	0.279920	0.573870
H10531	H1053	0.848200	0.265800	0.564300
O2351	O235	0.816160	0.764280	0.029960
O2361	O236	0.790100	0.797600	0.028400
C14051	C1405	0.807530	0.787250	0.036260
C14061	C1406	0.816570	0.793290	0.063960
C14071	C1407	0.810790	0.815330	0.071550
H10541	H1054	0.803900	0.827800	0.059800
C14081	C1408	0.814920	0.822510	0.100950
C14091	C1409	0.805140	0.849960	0.112390
C14101	C1410	0.828210	0.850300	0.132050
C14111	C1411	0.848570	0.831570	0.132960
C14121	C1412	0.838540	0.814810	0.109430
C14131	C1413	0.856040	0.789440	0.101040
H10551	H1055	0.870700	0.782100	0.109500
C14141	C1414	0.781890	0.841340	0.122680
H10561	H1056	0.768500	0.841700	0.109200
H10571	H1057	0.784000	0.823600	0.129100
H10581	H1058	0.776700	0.852700	0.137100
C14151	C1415	0.810620	0.872150	0.091360
H10591	H1059	0.829300	0.873500	0.088300
H10601	H1060	0.801800	0.867800	0.075100
H10611	H1061	0.804100	0.888800	0.097800
C14161	C1416	0.841210	0.779920	0.073870
H10621	H1062	0.848200	0.765800	0.064300
O2371	O237	0.316160	0.264280	0.029960
O2381	O238	0.290100	0.297600	0.028400
C14171	C1417	0.307530	0.287250	0.036260
C14181	C1418	0.316570	0.293290	0.063960
C14191	C1419	0.310790	0.315330	0.071550
H10631	H1063	0.303900	0.327800	0.059800
C14201	C1420	0.314920	0.322510	0.100950
C14211	C1421	0.305140	0.349960	0.112390
C14221	C1422	0.328210	0.350300	0.132050
C14231	C1423	0.348570	0.331570	0.132960
C14241	C1424	0.338540	0.314810	0.109430
C14251	C1425	0.356040	0.289440	0.101040
H10641	H1064	0.370700	0.282100	0.109500
C14261	C1426	0.281890	0.341340	0.122680
H10651	H1065	0.268500	0.341700	0.109200
H10661	H1066	0.284000	0.323600	0.129100
H10671	H1067	0.276700	0.352700	0.137100
C14271	C1427	0.310620	0.372150	0.091360
H10681	H1068	0.329300	0.373500	0.088300
H10691	H1069	0.301800	0.367800	0.075100
H10701	H1070	0.304100	0.388800	0.097800
C14281	C1428	0.341210	0.279920	0.073870
H10711	H1071	0.348200	0.265800	0.064300
O2391	O239	0.316160	0.764280	0.529960
O2401	O240	0.290100	0.797600	0.528400
C14291	C1429	0.307530	0.787250	0.536260
C14301	C1430	0.316570	0.793290	0.563960
C14311	C1431	0.310790	0.815330	0.571550
H10721	H1072	0.303900	0.827800	0.559800
C14321	C1432	0.314920	0.822510	0.600950
C14331	C1433	0.305140	0.849960	0.612390
C14341	C1434	0.328210	0.850300	0.632050
C14351	C1435	0.348570	0.831570	0.632960
C14361	C1436	0.338540	0.814810	0.609430
C14371	C1437	0.356040	0.789440	0.601040
H10731	H1073	0.370700	0.782100	0.609500
C14381	C1438	0.281890	0.841340	0.622680
H10741	H1074	0.268500	0.841700	0.609200
H10751	H1075	0.284000	0.823600	0.629100
H10761	H1076	0.276700	0.852700	0.637100
C14391	C1439	0.310620	0.872150	0.591360
H10771	H1077	0.329300	0.873500	0.588300
H10781	H1078	0.301800	0.867800	0.575100
H10791	H1079	0.304100	0.888800	0.597800
C14401	C1440	0.341210	0.779920	0.573870
H10801	H1080	0.348200	0.765800	0.564300
O2411	O241	0.183840	0.264280	0.470040
O2421	O242	0.209900	0.297600	0.471600
C14411	C1441	0.192470	0.287250	0.463740
C14421	C1442	0.183430	0.293290	0.436040
C14431	C1443	0.189210	0.315330	0.428450
H10811	H1081	0.196100	0.327800	0.440200
C14441	C1444	0.185080	0.322510	0.399050
C14451	C1445	0.194860	0.349960	0.387610
C14461	C1446	0.171790	0.350300	0.367950
C14471	C1447	0.151430	0.331570	0.367040
C14481	C1448	0.161460	0.314810	0.390570
C14491	C1449	0.143960	0.289440	0.398960
H10821	H1082	0.129300	0.282100	0.390500
C14501	C1450	0.218110	0.341340	0.377320
H10831	H1083	0.231500	0.341700	0.390800
H10841	H1084	0.216000	0.323600	0.370900
H10851	H1085	0.223300	0.352700	0.362900
C14511	C1451	0.189380	0.372150	0.408640
H10861	H1086	0.170700	0.373500	0.411700
H10871	H1087	0.198200	0.367800	0.424900
H10881	H1088	0.195900	0.388800	0.402200
C14521	C1452	0.158790	0.279920	0.426130
H10891	H1089	0.151800	0.265800	0.435700
O2431	O243	0.183840	0.764280	0.970040
O2441	O244	0.209900	0.797600	0.971600
C14531	C1453	0.192470	0.787250	0.963740
C14541	C1454	0.183430	0.793290	0.936040
C14551	C1455	0.189210	0.815330	0.928450
H10901	H1090	0.196100	0.827800	0.940200
C14561	C1456	0.185080	0.822510	0.899050
C14571	C1457	0.194860	0.849960	0.887610
C14581	C1458	0.171790	0.850300	0.867950
C14591	C1459	0.151430	0.831570	0.867040
C14601	C1460	0.161460	0.814810	0.890570
C14611	C1461	0.143960	0.789440	0.898960
H10911	H1091	0.129300	0.782100	0.890500
C14621	C1462	0.218110	0.841340	0.877320
H10921	H1092	0.231500	0.841700	0.890800
H10931	H1093	0.216000	0.823600	0.870900
H10941	H1094	0.223300	0.852700	0.862900
C14631	C1463	0.189380	0.872150	0.908640
H10951	H1095	0.170700	0.873500	0.911700
H10961	H1096	0.198200	0.867800	0.924900
H10971	H1097	0.195900	0.888800	0.902200
C14641	C1464	0.158790	0.779920	0.926130
H10981	H1098	0.151800	0.765800	0.935700
O2451	O245	0.683840	0.264280	0.970040
O2461	O246	0.709900	0.297600	0.971600
C14651	C1465	0.692470	0.287250	0.963740
C14661	C1466	0.683430	0.293290	0.936040
C14671	C1467	0.689210	0.315330	0.928450
H10991	H1099	0.696100	0.327800	0.940200
C14681	C1468	0.685080	0.322510	0.899050
C14691	C1469	0.694860	0.349960	0.887610
C14701	C1470	0.671790	0.350300	0.867950
C14711	C1471	0.651430	0.331570	0.867040
C14721	C1472	0.661460	0.314810	0.890570
C14731	C1473	0.643960	0.289440	0.898960
H11001	H1100	0.629300	0.282100	0.890500
C14741	C1474	0.718110	0.341340	0.877320
H11011	H1101	0.731500	0.341700	0.890800
H11021	H1102	0.716000	0.323600	0.870900
H11031	H1103	0.723300	0.352700	0.862900
C14751	C1475	0.689380	0.372150	0.908640
H11041	H1104	0.670700	0.373500	0.911700
H11051	H1105	0.698200	0.367800	0.924900
H11061	H1106	0.695900	0.388800	0.902200
C14761	C1476	0.658790	0.279920	0.926130
H11071	H1107	0.651800	0.265800	0.935700
O2471	O247	0.683840	0.764280	0.470040
O2481	O248	0.709900	0.797600	0.471600
C14771	C1477	0.692470	0.787250	0.463740
C14781	C1478	0.683430	0.793290	0.436040
C14791	C1479	0.689210	0.815330	0.428450
H11081	H1108	0.696100	0.827800	0.440200
C14801	C1480	0.685080	0.822510	0.399050
C14811	C1481	0.694860	0.849960	0.387610
C14821	C1482	0.671790	0.850300	0.367950
C14831	C1483	0.651430	0.831570	0.367040
C14841	C1484	0.661460	0.814810	0.390570
C14851	C1485	0.643960	0.789440	0.398960
H11091	H1109	0.629300	0.782100	0.390500
C14861	C1486	0.718110	0.841340	0.377320
H11101	H1110	0.731500	0.841700	0.390800
H11111	H1111	0.716000	0.823600	0.370900
H11121	H1112	0.723300	0.852700	0.362900
C14871	C1487	0.689380	0.872150	0.408640
H11131	H1113	0.670700	0.873500	0.411700
H11141	H1114	0.698200	0.867800	0.424900
H11151	H1115	0.695900	0.888800	0.402200
C14881	C1488	0.658790	0.779920	0.426130
H11161	H1116	0.651800	0.765800	0.435700
O2491	O249	0.183840	0.735720	0.529960
O2501	O250	0.209900	0.702400	0.528400
C14891	C1489	0.192470	0.712750	0.536260
C14901	C1490	0.183430	0.706710	0.563960
C14911	C1491	0.189210	0.684670	0.571550
H11171	H1117	0.196100	0.672200	0.559800
C14921	C1492	0.185080	0.677490	0.600950
C14931	C1493	0.194860	0.650040	0.612390
C14941	C1494	0.171790	0.649700	0.632050
C14951	C1495	0.151430	0.668430	0.632960
C14961	C1496	0.161460	0.685190	0.609430
C14971	C1497	0.143960	0.710560	0.601040
H11181	H1118	0.129300	0.717900	0.609500
C14981	C1498	0.218110	0.658660	0.622680
H11191	H1119	0.231500	0.658300	0.609200
H11201	H1120	0.216000	0.676400	0.629100
H11211	H1121	0.223300	0.647300	0.637100
C14991	C1499	0.189380	0.627850	0.591360
H11221	H1122	0.170700	0.626500	0.588300
H11231	H1123	0.198200	0.632200	0.575100
H11241	H1124	0.195900	0.611200	0.597800
C15001	C1500	0.158790	0.720080	0.573870
H11251	H1125	0.151800	0.734200	0.564300
O2511	O251	0.183840	0.235720	0.029960
O2521	O252	0.209900	0.202400	0.028400
C15011	C1501	0.192470	0.212750	0.036260
C15021	C1502	0.183430	0.206710	0.063960
C15031	C1503	0.189210	0.184670	0.071550
H11261	H1126	0.196100	0.172200	0.059800
C15041	C1504	0.185080	0.177490	0.100950
C15051	C1505	0.194860	0.150040	0.112390
C15061	C1506	0.171790	0.149700	0.132050
C15071	C1507	0.151430	0.168430	0.132960
C15081	C1508	0.161460	0.185190	0.109430
C15091	C1509	0.143960	0.210560	0.101040
H11271	H1127	0.129300	0.217900	0.109500
C15101	C1510	0.218110	0.158660	0.122680
H11281	H1128	0.231500	0.158300	0.109200
H11291	H1129	0.216000	0.176400	0.129100
H11301	H1130	0.223300	0.147300	0.137100
C15111	C1511	0.189380	0.127850	0.091360
H11311	H1131	0.170700	0.126500	0.088300
H11321	H1132	0.198200	0.132200	0.075100
H11331	H1133	0.195900	0.111200	0.097800
C15121	C1512	0.158790	0.220080	0.073870
H11341	H1134	0.151800	0.234200	0.064300
O2531	O253	0.683840	0.735720	0.029960
O2541	O254	0.709900	0.702400	0.028400
C15131	C1513	0.692470	0.712750	0.036260
C15141	C1514	0.683430	0.706710	0.063960
C15151	C1515	0.689210	0.684670	0.071550
H11351	H1135	0.696100	0.672200	0.059800
C15161	C1516	0.685080	0.677490	0.100950
C15171	C1517	0.694860	0.650040	0.112390
C15181	C1518	0.671790	0.649700	0.132050
C15191	C1519	0.651430	0.668430	0.132960
C15201	C1520	0.661460	0.685190	0.109430
C15211	C1521	0.643960	0.710560	0.101040
H11361	H1136	0.629300	0.717900	0.109500
C15221	C1522	0.718110	0.658660	0.122680
H11371	H1137	0.731500	0.658300	0.109200
H11381	H1138	0.716000	0.676400	0.129100
H11391	H1139	0.723300	0.647300	0.137100
C15231	C1523	0.689380	0.627850	0.091360
H11401	H1140	0.670700	0.626500	0.088300
H11411	H1141	0.698200	0.632200	0.075100
H11421	H1142	0.695900	0.611200	0.097800
C15241	C1524	0.658790	0.720080	0.073870
H11431	H1143	0.651800	0.734200	0.064300
O2551	O255	0.683840	0.235720	0.529960
O2561	O256	0.709900	0.202400	0.528400
C15251	C1525	0.692470	0.212750	0.536260
C15261	C1526	0.683430	0.206710	0.563960
C15271	C1527	0.689210	0.184670	0.571550
H11441	H1144	0.696100	0.172200	0.559800
C15281	C1528	0.685080	0.177490	0.600950
C15291	C1529	0.694860	0.150040	0.612390
C15301	C1530	0.671790	0.149700	0.632050
C15311	C1531	0.651430	0.168430	0.632960
C15321	C1532	0.661460	0.185190	0.609430
C15331	C1533	0.643960	0.210560	0.601040
H11451	H1145	0.629300	0.217900	0.609500
C15341	C1534	0.718110	0.158660	0.622680
H11461	H1146	0.731500	0.158300	0.609200
H11471	H1147	0.716000	0.176400	0.629100
H11481	H1148	0.723300	0.147300	0.637100
C15351	C1535	0.689380	0.127850	0.591360
H11491	H1149	0.670700	0.126500	0.588300
H11501	H1150	0.698200	0.132200	0.575100
H11511	H1151	0.695900	0.111200	0.597800
C15361	C1536	0.658790	0.220080	0.573870
H11521	H1152	0.651800	0.234200	0.564300
O2571	O257	0.470040	0.816160	0.735720
O2581	O258	0.471600	0.790100	0.702400
C15371	C1537	0.463740	0.807530	0.712750
C15381	C1538	0.436040	0.816570	0.706710
C15391	C1539	0.428450	0.810790	0.684670
H11531	H1153	0.440200	0.803900	0.672200
C15401	C1540	0.399050	0.814920	0.677490
C15411	C1541	0.387610	0.805140	0.650040
C15421	C1542	0.367950	0.828210	0.649700
C15431	C1543	0.367040	0.848570	0.668430
C15441	C1544	0.390570	0.838540	0.685190
C15451	C1545	0.398960	0.856040	0.710560
H11541	H1154	0.390500	0.870700	0.717900
C15461	C1546	0.377320	0.781890	0.658660
H11551	H1155	0.390800	0.768500	0.658300
H11561	H1156	0.370900	0.784000	0.676400
H11571	H1157	0.362900	0.776700	0.647300
C15471	C1547	0.408640	0.810620	0.627850
H11581	H1158	0.411700	0.829300	0.626500
H11591	H1159	0.424900	0.801800	0.632200
H11601	H1160	0.402200	0.804100	0.611200
C15481	C1548	0.426130	0.841210	0.720080
H11611	H1161	0.435700	0.848200	0.734200
O2591	O259	0.470040	0.316160	0.235720
O2601	O260	0.471600	0.290100	0.202400
C15491	C1549	0.463740	0.307530	0.212750
C15501	C1550	0.436040	0.316570	0.206710
C15511	C1551	0.428450	0.310790	0.184670
H11621	H1162	0.440200	0.303900	0.172200
C15521	C1552	0.399050	0.314920	0.177490
C15531	C1553	0.387610	0.305140	0.150040
C15541	C1554	0.367950	0.328210	0.149700
C15551	C1555	0.367040	0.348570	0.168430
C15561	C1556	0.390570	0.338540	0.185190
C15571	C1557	0.398960	0.356040	0.210560
H11631	H1163	0.390500	0.370700	0.217900
C15581	C1558	0.377320	0.281890	0.158660
H11641	H1164	0.390800	0.268500	0.158300
H11651	H1165	0.370900	0.284000	0.176400
H11661	H1166	0.362900	0.276700	0.147300
C15591	C1559	0.408640	0.310620	0.127850
H11671	H1167	0.411700	0.329300	0.126500
H11681	H1168	0.424900	0.301800	0.132200
H11691	H1169	0.402200	0.304100	0.111200
C15601	C1560	0.426130	0.341210	0.220080
H11701	H1170	0.435700	0.348200	0.234200
O2611	O261	0.970040	0.816160	0.235720
O2621	O262	0.971600	0.790100	0.202400
C15611	C1561	0.963740	0.807530	0.212750
C15621	C1562	0.936040	0.816570	0.206710
C15631	C1563	0.928450	0.810790	0.184670
H11711	H1171	0.940200	0.803900	0.172200
C15641	C1564	0.899050	0.814920	0.177490
C15651	C1565	0.887610	0.805140	0.150040
C15661	C1566	0.867950	0.828210	0.149700
C15671	C1567	0.867040	0.848570	0.168430
C15681	C1568	0.890570	0.838540	0.185190
C15691	C1569	0.898960	0.856040	0.210560
H11721	H1172	0.890500	0.870700	0.217900
C15701	C1570	0.877320	0.781890	0.158660
H11731	H1173	0.890800	0.768500	0.158300
H11741	H1174	0.870900	0.784000	0.176400
H11751	H1175	0.862900	0.776700	0.147300
C15711	C1571	0.908640	0.810620	0.127850
H11761	H1176	0.911700	0.829300	0.126500
H11771	H1177	0.924900	0.801800	0.132200
H11781	H1178	0.902200	0.804100	0.111200
C15721	C1572	0.926130	0.841210	0.220080
H11791	H1179	0.935700	0.848200	0.234200
O2631	O263	0.970040	0.316160	0.735720
O2641	O264	0.971600	0.290100	0.702400
C15731	C1573	0.963740	0.307530	0.712750
C15741	C1574	0.936040	0.316570	0.706710
C15751	C1575	0.928450	0.310790	0.684670
H11801	H1180	0.940200	0.303900	0.672200
C15761	C1576	0.899050	0.314920	0.677490
C15771	C1577	0.887610	0.305140	0.650040
C15781	C1578	0.867950	0.328210	0.649700
C15791	C1579	0.867040	0.348570	0.668430
C15801	C1580	0.890570	0.338540	0.685190
C15811	C1581	0.898960	0.356040	0.710560
H11811	H1181	0.890500	0.370700	0.717900
C15821	C1582	0.877320	0.281890	0.658660
H11821	H1182	0.890800	0.268500	0.658300
H11831	H1183	0.870900	0.284000	0.676400
H11841	H1184	0.862900	0.276700	0.647300
C15831	C1583	0.908640	0.310620	0.627850
H11851	H1185	0.911700	0.329300	0.626500
H11861	H1186	0.924900	0.301800	0.632200
H11871	H1187	0.902200	0.304100	0.611200
C15841	C1584	0.926130	0.341210	0.720080
H11881	H1188	0.935700	0.348200	0.734200
O2651	O265	0.529960	0.816160	0.264280
O2661	O266	0.528400	0.790100	0.297600
C15851	C1585	0.536260	0.807530	0.287250
C15861	C1586	0.563960	0.816570	0.293290
C15871	C1587	0.571550	0.810790	0.315330
H11891	H1189	0.559800	0.803900	0.327800
C15881	C1588	0.600950	0.814920	0.322510
C15891	C1589	0.612390	0.805140	0.349960
C15901	C1590	0.632050	0.828210	0.350300
C15911	C1591	0.632960	0.848570	0.331570
C15921	C1592	0.609430	0.838540	0.314810
C15931	C1593	0.601040	0.856040	0.289440
H11901	H1190	0.609500	0.870700	0.282100
C15941	C1594	0.622680	0.781890	0.341340
H11911	H1191	0.609200	0.768500	0.341700
H11921	H1192	0.629100	0.784000	0.323600
H11931	H1193	0.637100	0.776700	0.352700
C15951	C1595	0.591360	0.810620	0.372150
H11941	H1194	0.588300	0.829300	0.373500
H11951	H1195	0.575100	0.801800	0.367800
H11961	H1196	0.597800	0.804100	0.388800
C15961	C1596	0.573870	0.841210	0.279920
H11971	H1197	0.564300	0.848200	0.265800
O2671	O267	0.529960	0.316160	0.764280
O2681	O268	0.528400	0.290100	0.797600
C15971	C1597	0.536260	0.307530	0.787250
C15981	C1598	0.563960	0.316570	0.793290
C15991	C1599	0.571550	0.310790	0.815330
H11981	H1198	0.559800	0.303900	0.827800
C16001	C1600	0.600950	0.314920	0.822510
C16011	C1601	0.612390	0.305140	0.849960
C16021	C1602	0.632050	0.328210	0.850300
C16031	C1603	0.632960	0.348570	0.831570
C16041	C1604	0.609430	0.338540	0.814810
C16051	C1605	0.601040	0.356040	0.789440
H11991	H1199	0.609500	0.370700	0.782100
C16061	C1606	0.622680	0.281890	0.841340
H12001	H1200	0.609200	0.268500	0.841700
H12011	H1201	0.629100	0.284000	0.823600
H12021	H1202	0.637100	0.276700	0.852700
C16071	C1607	0.591360	0.310620	0.872150
H12031	H1203	0.588300	0.329300	0.873500
H12041	H1204	0.575100	0.301800	0.867800
H12051	H1205	0.597800	0.304100	0.888800
C16081	C1608	0.573870	0.341210	0.779920
H12061	H1206	0.564300	0.348200	0.765800
O2691	O269	0.029960	0.816160	0.764280
O2701	O270	0.028400	0.790100	0.797600
C16091	C1609	0.036260	0.807530	0.787250
C16101	C1610	0.063960	0.816570	0.793290
C16111	C1611	0.071550	0.810790	0.815330
H12071	H1207	0.059800	0.803900	0.827800
C16121	C1612	0.100950	0.814920	0.822510
C16131	C1613	0.112390	0.805140	0.849960
C16141	C1614	0.132050	0.828210	0.850300
C16151	C1615	0.132960	0.848570	0.831570
C16161	C1616	0.109430	0.838540	0.814810
C16171	C1617	0.101040	0.856040	0.789440
H12081	H1208	0.109500	0.870700	0.782100
C16181	C1618	0.122680	0.781890	0.841340
H12091	H1209	0.109200	0.768500	0.841700
H12101	H1210	0.129100	0.784000	0.823600
H12111	H1211	0.137100	0.776700	0.852700
C16191	C1619	0.091360	0.810620	0.872150
H12121	H1212	0.088300	0.829300	0.873500
H12131	H1213	0.075100	0.801800	0.867800
H12141	H1214	0.097800	0.804100	0.888800
C16201	C1620	0.073870	0.841210	0.779920
H12151	H1215	0.064300	0.848200	0.765800
O2711	O271	0.029960	0.316160	0.264280
O2721	O272	0.028400	0.290100	0.297600
C16211	C1621	0.036260	0.307530	0.287250
C16221	C1622	0.063960	0.316570	0.293290
C16231	C1623	0.071550	0.310790	0.315330
H12161	H1216	0.059800	0.303900	0.327800
C16241	C1624	0.100950	0.314920	0.322510
C16251	C1625	0.112390	0.305140	0.349960
C16261	C1626	0.132050	0.328210	0.350300
C16271	C1627	0.132960	0.348570	0.331570
C16281	C1628	0.109430	0.338540	0.314810
C16291	C1629	0.101040	0.356040	0.289440
H12171	H1217	0.109500	0.370700	0.282100
C16301	C1630	0.122680	0.281890	0.341340
H12181	H1218	0.109200	0.268500	0.341700
H12191	H1219	0.129100	0.284000	0.323600
H12201	H1220	0.137100	0.276700	0.352700
C16311	C1631	0.091360	0.310620	0.372150
H12211	H1221	0.088300	0.329300	0.373500
H12221	H1222	0.075100	0.301800	0.367800
H12231	H1223	0.097800	0.304100	0.388800
C16321	C1632	0.073870	0.341210	0.279920
H12241	H1224	0.064300	0.348200	0.265800
O2731	O273	0.470040	0.183840	0.264280
O2741	O274	0.471600	0.209900	0.297600
C16331	C1633	0.463740	0.192470	0.287250
C16341	C1634	0.436040	0.183430	0.293290
C16351	C1635	0.428450	0.189210	0.315330
H12251	H1225	0.440200	0.196100	0.327800
C16361	C1636	0.399050	0.185080	0.322510
C16371	C1637	0.387610	0.194860	0.349960
C16381	C1638	0.367950	0.171790	0.350300
C16391	C1639	0.367040	0.151430	0.331570
C16401	C1640	0.390570	0.161460	0.314810
C16411	C1641	0.398960	0.143960	0.289440
H12261	H1226	0.390500	0.129300	0.282100
C16421	C1642	0.377320	0.218110	0.341340
H12271	H1227	0.390800	0.231500	0.341700
H12281	H1228	0.370900	0.216000	0.323600
H12291	H1229	0.362900	0.223300	0.352700
C16431	C1643	0.408640	0.189380	0.372150
H12301	H1230	0.411700	0.170700	0.373500
H12311	H1231	0.424900	0.198200	0.367800
H12321	H1232	0.402200	0.195900	0.388800
C16441	C1644	0.426130	0.158790	0.279920
H12331	H1233	0.435700	0.151800	0.265800
O2751	O275	0.470040	0.683840	0.764280
O2761	O276	0.471600	0.709900	0.797600
C16451	C1645	0.463740	0.692470	0.787250
C16461	C1646	0.436040	0.683430	0.793290
C16471	C1647	0.428450	0.689210	0.815330
H12341	H1234	0.440200	0.696100	0.827800
C16481	C1648	0.399050	0.685080	0.822510
C16491	C1649	0.387610	0.694860	0.849960
C16501	C1650	0.367950	0.671790	0.850300
C16511	C1651	0.367040	0.651430	0.831570
C16521	C1652	0.390570	0.661460	0.814810
C16531	C1653	0.398960	0.643960	0.789440
H12351	H1235	0.390500	0.629300	0.782100
C16541	C1654	0.377320	0.718110	0.841340
H12361	H1236	0.390800	0.731500	0.841700
H12371	H1237	0.370900	0.716000	0.823600
H12381	H1238	0.362900	0.723300	0.852700
C16551	C1655	0.408640	0.689380	0.872150
H12391	H1239	0.411700	0.670700	0.873500
H12401	H1240	0.424900	0.698200	0.867800
H12411	H1241	0.402200	0.695900	0.888800
C16561	C1656	0.426130	0.658790	0.779920
H12421	H1242	0.435700	0.651800	0.765800
O2771	O277	0.970040	0.183840	0.764280
O2781	O278	0.971600	0.209900	0.797600
C16571	C1657	0.963740	0.192470	0.787250
C16581	C1658	0.936040	0.183430	0.793290
C16591	C1659	0.928450	0.189210	0.815330
H12431	H1243	0.940200	0.196100	0.827800
C16601	C1660	0.899050	0.185080	0.822510
C16611	C1661	0.887610	0.194860	0.849960
C16621	C1662	0.867950	0.171790	0.850300
C16631	C1663	0.867040	0.151430	0.831570
C16641	C1664	0.890570	0.161460	0.814810
C16651	C1665	0.898960	0.143960	0.789440
H12441	H1244	0.890500	0.129300	0.782100
C16661	C1666	0.877320	0.218110	0.841340
H12451	H1245	0.890800	0.231500	0.841700
H12461	H1246	0.870900	0.216000	0.823600
H12471	H1247	0.862900	0.223300	0.852700
C16671	C1667	0.908640	0.189380	0.872150
H12481	H1248	0.911700	0.170700	0.873500
H12491	H1249	0.924900	0.198200	0.867800
H12501	H1250	0.902200	0.195900	0.888800
C16681	C1668	0.926130	0.158790	0.779920
H12511	H1251	0.935700	0.151800	0.765800
O2791	O279	0.970040	0.683840	0.264280
O2801	O280	0.971600	0.709900	0.297600
C16691	C1669	0.963740	0.692470	0.287250
C16701	C1670	0.936040	0.683430	0.293290
C16711	C1671	0.928450	0.689210	0.315330
H12521	H1252	0.940200	0.696100	0.327800
C16721	C1672	0.899050	0.685080	0.322510
C16731	C1673	0.887610	0.694860	0.349960
C16741	C1674	0.867950	0.671790	0.350300
C16751	C1675	0.867040	0.651430	0.331570
C16761	C1676	0.890570	0.661460	0.314810
C16771	C1677	0.898960	0.643960	0.289440
H12531	H1253	0.890500	0.629300	0.282100
C16781	C1678	0.877320	0.718110	0.341340
H12541	H1254	0.890800	0.731500	0.341700
H12551	H1255	0.870900	0.716000	0.323600
H12561	H1256	0.862900	0.723300	0.352700
C16791	C1679	0.908640	0.689380	0.372150
H12571	H1257	0.911700	0.670700	0.373500
H12581	H1258	0.924900	0.698200	0.367800
H12591	H1259	0.902200	0.695900	0.388800
C16801	C1680	0.926130	0.658790	0.279920
H12601	H1260	0.935700	0.651800	0.265800
O2811	O281	0.529960	0.183840	0.735720
O2821	O282	0.528400	0.209900	0.702400
C16811	C1681	0.536260	0.192470	0.712750
C16821	C1682	0.563960	0.183430	0.706710
C16831	C1683	0.571550	0.189210	0.684670
H12611	H1261	0.559800	0.196100	0.672200
C16841	C1684	0.600950	0.185080	0.677490
C16851	C1685	0.612390	0.194860	0.650040
C16861	C1686	0.632050	0.171790	0.649700
C16871	C1687	0.632960	0.151430	0.668430
C16881	C1688	0.609430	0.161460	0.685190
C16891	C1689	0.601040	0.143960	0.710560
H12621	H1262	0.609500	0.129300	0.717900
C16901	C1690	0.622680	0.218110	0.658660
H12631	H1263	0.609200	0.231500	0.658300
H12641	H1264	0.629100	0.216000	0.676400
H12651	H1265	0.637100	0.223300	0.647300
C16911	C1691	0.591360	0.189380	0.627850
H12661	H1266	0.588300	0.170700	0.626500
H12671	H1267	0.575100	0.198200	0.632200
H12681	H1268	0.597800	0.195900	0.611200
C16921	C1692	0.573870	0.158790	0.720080
H12691	H1269	0.564300	0.151800	0.734200
O2831	O283	0.529960	0.683840	0.235720
O2841	O284	0.528400	0.709900	0.202400
C16931	C1693	0.536260	0.692470	0.212750
C16941	C1694	0.563960	0.683430	0.206710
C16951	C1695	0.571550	0.689210	0.184670
H12701	H1270	0.559800	0.696100	0.172200
C16961	C1696	0.600950	0.685080	0.177490
C16971	C1697	0.612390	0.694860	0.150040
C16981	C1698	0.632050	0.671790	0.149700
C16991	C1699	0.632960	0.651430	0.168430
C17001	C1700	0.609430	0.661460	0.185190
C17011	C1701	0.601040	0.643960	0.210560
H12711	H1271	0.609500	0.629300	0.217900
C17021	C1702	0.622680	0.718110	0.158660
H12721	H1272	0.609200	0.731500	0.158300
H12731	H1273	0.629100	0.716000	0.176400
H12741	H1274	0.637100	0.723300	0.147300
C17031	C1703	0.591360	0.689380	0.127850
H12751	H1275	0.588300	0.670700	0.126500
H12761	H1276	0.575100	0.698200	0.132200
H12771	H1277	0.597800	0.695900	0.111200
C17041	C1704	0.573870	0.658790	0.220080
H12781	H1278	0.564300	0.651800	0.234200
O2851	O285	0.029960	0.183840	0.235720
O2861	O286	0.028400	0.209900	0.202400
C17051	C1705	0.036260	0.192470	0.212750
C17061	C1706	0.063960	0.183430	0.206710
C17071	C1707	0.071550	0.189210	0.184670
H12791	H1279	0.059800	0.196100	0.172200
C17081	C1708	0.100950	0.185080	0.177490
C17091	C1709	0.112390	0.194860	0.150040
C17101	C1710	0.132050	0.171790	0.149700
C17111	C1711	0.132960	0.151430	0.168430
C17121	C1712	0.109430	0.161460	0.185190
C17131	C1713	0.101040	0.143960	0.210560
H12801	H1280	0.109500	0.129300	0.217900
C17141	C1714	0.122680	0.218110	0.158660
H12811	H1281	0.109200	0.231500	0.158300
H12821	H1282	0.129100	0.216000	0.176400
H12831	H1283	0.137100	0.223300	0.147300
C17151	C1715	0.091360	0.189380	0.127850
H12841	H1284	0.088300	0.170700	0.126500
H12851	H1285	0.075100	0.198200	0.132200
H12861	H1286	0.097800	0.195900	0.111200
C17161	C1716	0.073870	0.158790	0.220080
H12871	H1287	0.064300	0.151800	0.234200
O2871	O287	0.029960	0.683840	0.735720
O2881	O288	0.028400	0.709900	0.702400
C17171	C1717	0.036260	0.692470	0.712750
C17181	C1718	0.063960	0.683430	0.706710
C17191	C1719	0.071550	0.689210	0.684670
H12881	H1288	0.059800	0.696100	0.672200
C17201	C1720	0.100950	0.685080	0.677490
C17211	C1721	0.112390	0.694860	0.650040
C17221	C1722	0.132050	0.671790	0.649700
C17231	C1723	0.132960	0.651430	0.668430
C17241	C1724	0.109430	0.661460	0.685190
C17251	C1725	0.101040	0.643960	0.710560
H12891	H1289	0.109500	0.629300	0.717900
C17261	C1726	0.122680	0.718110	0.658660
H12901	H1290	0.109200	0.731500	0.658300
H12911	H1291	0.129100	0.716000	0.676400
H12921	H1292	0.137100	0.723300	0.647300
C17271	C1727	0.091360	0.689380	0.627850
H12931	H1293	0.088300	0.670700	0.626500
H12941	H1294	0.075100	0.698200	0.632200
H12951	H1295	0.097800	0.695900	0.611200
C17281	C1728	0.073870	0.658790	0.720080
H12961	H1296	0.064300	0.651800	0.734200
O2891	O289	0.970040	0.235720	0.683840
O2901	O290	0.971600	0.202400	0.709900
C17291	C1729	0.963740	0.212750	0.692470
C17301	C1730	0.936040	0.206710	0.683430
C17311	C1731	0.928450	0.184670	0.689210
H12971	H1297	0.940200	0.172200	0.696100
C17321	C1732	0.899050	0.177490	0.685080
C17331	C1733	0.887610	0.150040	0.694860
C17341	C1734	0.867950	0.149700	0.671790
C17351	C1735	0.867040	0.168430	0.651430
C17361	C1736	0.890570	0.185190	0.661460
C17371	C1737	0.898960	0.210560	0.643960
H12981	H1298	0.890500	0.217900	0.629300
C17381	C1738	0.877320	0.158660	0.718110
H12991	H1299	0.890800	0.158300	0.731500
H13001	H1300	0.870900	0.176400	0.716000
H13011	H1301	0.862900	0.147300	0.723300
C17391	C1739	0.908640	0.127850	0.689380
H13021	H1302	0.911700	0.126500	0.670700
H13031	H1303	0.924900	0.132200	0.698200
H13041	H1304	0.902200	0.111200	0.695900
C17401	C1740	0.926130	0.220080	0.658790
H13051	H1305	0.935700	0.234200	0.651800
O2911	O291	0.970040	0.735720	0.183840
O2921	O292	0.971600	0.702400	0.209900
C17411	C1741	0.963740	0.712750	0.192470
C17421	C1742	0.936040	0.706710	0.183430
C17431	C1743	0.928450	0.684670	0.189210
H13061	H1306	0.940200	0.672200	0.196100
C17441	C1744	0.899050	0.677490	0.185080
C17451	C1745	0.887610	0.650040	0.194860
C17461	C1746	0.867950	0.649700	0.171790
C17471	C1747	0.867040	0.668430	0.151430
C17481	C1748	0.890570	0.685190	0.161460
C17491	C1749	0.898960	0.710560	0.143960
H13071	H1307	0.890500	0.717900	0.129300
C17501	C1750	0.877320	0.658660	0.218110
H13081	H1308	0.890800	0.658300	0.231500
H13091	H1309	0.870900	0.676400	0.216000
H13101	H1310	0.862900	0.647300	0.223300
C17511	C1751	0.908640	0.627850	0.189380
H13111	H1311	0.911700	0.626500	0.170700
H13121	H1312	0.924900	0.632200	0.198200
H13131	H1313	0.902200	0.611200	0.195900
C17521	C1752	0.926130	0.720080	0.158790
H13141	H1314	0.935700	0.734200	0.151800
O2931	O293	0.470040	0.235720	0.183840
O2941	O294	0.471600	0.202400	0.209900
C17531	C1753	0.463740	0.212750	0.192470
C17541	C1754	0.436040	0.206710	0.183430
C17551	C1755	0.428450	0.184670	0.189210
H13151	H1315	0.440200	0.172200	0.196100
C17561	C1756	0.399050	0.177490	0.185080
C17571	C1757	0.387610	0.150040	0.194860
C17581	C1758	0.367950	0.149700	0.171790
C17591	C1759	0.367040	0.168430	0.151430
C17601	C1760	0.390570	0.185190	0.161460
C17611	C1761	0.398960	0.210560	0.143960
H13161	H1316	0.390500	0.217900	0.129300
C17621	C1762	0.377320	0.158660	0.218110
H13171	H1317	0.390800	0.158300	0.231500
H13181	H1318	0.370900	0.176400	0.216000
H13191	H1319	0.362900	0.147300	0.223300
C17631	C1763	0.408640	0.127850	0.189380
H13201	H1320	0.411700	0.126500	0.170700
H13211	H1321	0.424900	0.132200	0.198200
H13221	H1322	0.402200	0.111200	0.195900
C17641	C1764	0.426130	0.220080	0.158790
H13231	H1323	0.435700	0.234200	0.151800
O2951	O295	0.470040	0.735720	0.683840
O2961	O296	0.471600	0.702400	0.709900
C17651	C1765	0.463740	0.712750	0.692470
C17661	C1766	0.436040	0.706710	0.683430
C17671	C1767	0.428450	0.684670	0.689210
H13241	H1324	0.440200	0.672200	0.696100
C17681	C1768	0.399050	0.677490	0.685080
C17691	C1769	0.387610	0.650040	0.694860
C17701	C1770	0.367950	0.649700	0.671790
C17711	C1771	0.367040	0.668430	0.651430
C17721	C1772	0.390570	0.685190	0.661460
C17731	C1773	0.398960	0.710560	0.643960
H13251	H1325	0.390500	0.717900	0.629300
C17741	C1774	0.377320	0.658660	0.718110
H13261	H1326	0.390800	0.658300	0.731500
H13271	H1327	0.370900	0.676400	0.716000
H13281	H1328	0.362900	0.647300	0.723300
C17751	C1775	0.408640	0.627850	0.689380
H13291	H1329	0.411700	0.626500	0.670700
H13301	H1330	0.424900	0.632200	0.698200
H13311	H1331	0.402200	0.611200	0.695900
C17761	C1776	0.426130	0.720080	0.658790
H13321	H1332	0.435700	0.734200	0.651800
O2971	O297	0.029960	0.764280	0.683840
O2981	O298	0.028400	0.797600	0.709900
C17771	C1777	0.036260	0.787250	0.692470
C17781	C1778	0.063960	0.793290	0.683430
C17791	C1779	0.071550	0.815330	0.689210
H13331	H1333	0.059800	0.827800	0.696100
C17801	C1780	0.100950	0.822510	0.685080
C17811	C1781	0.112390	0.849960	0.694860
C17821	C1782	0.132050	0.850300	0.671790
C17831	C1783	0.132960	0.831570	0.651430
C17841	C1784	0.109430	0.814810	0.661460
C17851	C1785	0.101040	0.789440	0.643960
H13341	H1334	0.109500	0.782100	0.629300
C17861	C1786	0.122680	0.841340	0.718110
H13351	H1335	0.109200	0.841700	0.731500
H13361	H1336	0.129100	0.823600	0.716000
H13371	H1337	0.137100	0.852700	0.723300
C17871	C1787	0.091360	0.872150	0.689380
H13381	H1338	0.088300	0.873500	0.670700
H13391	H1339	0.075100	0.867800	0.698200
H13401	H1340	0.097800	0.888800	0.695900
C17881	C1788	0.073870	0.779920	0.658790
H13411	H1341	0.064300	0.765800	0.651800
O2991	O299	0.029960	0.264280	0.183840
O3001	O300	0.028400	0.297600	0.209900
C17891	C1789	0.036260	0.287250	0.192470
C17901	C1790	0.063960	0.293290	0.183430
C17911	C1791	0.071550	0.315330	0.189210
H13421	H1342	0.059800	0.327800	0.196100
C17921	C1792	0.100950	0.322510	0.185080
C17931	C1793	0.112390	0.349960	0.194860
C17941	C1794	0.132050	0.350300	0.171790
C17951	C1795	0.132960	0.331570	0.151430
C17961	C1796	0.109430	0.314810	0.161460
C17971	C1797	0.101040	0.289440	0.143960
H13431	H1343	0.109500	0.282100	0.129300
C17981	C1798	0.122680	0.341340	0.218110
H13441	H1344	0.109200	0.341700	0.231500
H13451	H1345	0.129100	0.323600	0.216000
H13461	H1346	0.137100	0.352700	0.223300
C17991	C1799	0.091360	0.372150	0.189380
H13471	H1347	0.088300	0.373500	0.170700
H13481	H1348	0.075100	0.367800	0.198200
H13491	H1349	0.097800	0.388800	0.195900
C18001	C1800	0.073870	0.279920	0.158790
H13501	H1350	0.064300	0.265800	0.151800
O3011	O301	0.529960	0.764280	0.183840
O3021	O302	0.528400	0.797600	0.209900
C18011	C1801	0.536260	0.787250	0.192470
C18021	C1802	0.563960	0.793290	0.183430
C18031	C1803	0.571550	0.815330	0.189210
H13511	H1351	0.559800	0.827800	0.196100
C18041	C1804	0.600950	0.822510	0.185080
C18051	C1805	0.612390	0.849960	0.194860
C18061	C1806	0.632050	0.850300	0.171790
C18071	C1807	0.632960	0.831570	0.151430
C18081	C1808	0.609430	0.814810	0.161460
C18091	C1809	0.601040	0.789440	0.143960
H13521	H1352	0.609500	0.782100	0.129300
C18101	C1810	0.622680	0.841340	0.218110
H13531	H1353	0.609200	0.841700	0.231500
H13541	H1354	0.629100	0.823600	0.216000
H13551	H1355	0.637100	0.852700	0.223300
C18111	C1811	0.591360	0.872150	0.189380
H13561	H1356	0.588300	0.873500	0.170700
H13571	H1357	0.575100	0.867800	0.198200
H13581	H1358	0.597800	0.888800	0.195900
C18121	C1812	0.573870	0.779920	0.158790
H13591	H1359	0.564300	0.765800	0.151800
O3031	O303	0.529960	0.264280	0.683840
O3041	O304	0.528400	0.297600	0.709900
C18131	C1813	0.536260	0.287250	0.692470
C18141	C1814	0.563960	0.293290	0.683430
C18151	C1815	0.571550	0.315330	0.689210
H13601	H1360	0.559800	0.327800	0.696100
C18161	C1816	0.600950	0.322510	0.685080
C18171	C1817	0.612390	0.349960	0.694860
C18181	C1818	0.632050	0.350300	0.671790
C18191	C1819	0.632960	0.331570	0.651430
C18201	C1820	0.609430	0.314810	0.661460
C18211	C1821	0.601040	0.289440	0.643960
H13611	H1361	0.609500	0.282100	0.629300
C18221	C1822	0.622680	0.341340	0.718110
H13621	H1362	0.609200	0.341700	0.731500
H13631	H1363	0.629100	0.323600	0.716000
H13641	H1364	0.637100	0.352700	0.723300
C18231	C1823	0.591360	0.372150	0.689380
H13651	H1365	0.588300	0.373500	0.670700
H13661	H1366	0.575100	0.367800	0.698200
H13671	H1367	0.597800	0.388800	0.695900
C18241	C1824	0.573870	0.279920	0.658790
H13681	H1368	0.564300	0.265800	0.651800
O3051	O305	0.970040	0.764280	0.316160
O3061	O306	0.971600	0.797600	0.290100
C18251	C1825	0.963740	0.787250	0.307530
C18261	C1826	0.936040	0.793290	0.316570
C18271	C1827	0.928450	0.815330	0.310790
H13691	H1369	0.940200	0.827800	0.303900
C18281	C1828	0.899050	0.822510	0.314920
C18291	C1829	0.887610	0.849960	0.305140
C18301	C1830	0.867950	0.850300	0.328210
C18311	C1831	0.867040	0.831570	0.348570
C18321	C1832	0.890570	0.814810	0.338540
C18331	C1833	0.898960	0.789440	0.356040
H13701	H1370	0.890500	0.782100	0.370700
C18341	C1834	0.877320	0.841340	0.281890
H13711	H1371	0.890800	0.841700	0.268500
H13721	H1372	0.870900	0.823600	0.284000
H13731	H1373	0.862900	0.852700	0.276700
C18351	C1835	0.908640	0.872150	0.310620
H13741	H1374	0.911700	0.873500	0.329300
H13751	H1375	0.924900	0.867800	0.301800
H13761	H1376	0.902200	0.888800	0.304100
C18361	C1836	0.926130	0.779920	0.341210
H13771	H1377	0.935700	0.765800	0.348200
O3071	O307	0.970040	0.264280	0.816160
O3081	O308	0.971600	0.297600	0.790100
C18371	C1837	0.963740	0.287250	0.807530
C18381	C1838	0.936040	0.293290	0.816570
C18391	C1839	0.928450	0.315330	0.810790
H13781	H1378	0.940200	0.327800	0.803900
C18401	C1840	0.899050	0.322510	0.814920
C18411	C1841	0.887610	0.349960	0.805140
C18421	C1842	0.867950	0.350300	0.828210
C18431	C1843	0.867040	0.331570	0.848570
C18441	C1844	0.890570	0.314810	0.838540
C18451	C1845	0.898960	0.289440	0.856040
H13791	H1379	0.890500	0.282100	0.870700
C18461	C1846	0.877320	0.341340	0.781890
H13801	H1380	0.890800	0.341700	0.768500
H13811	H1381	0.870900	0.323600	0.784000
H13821	H1382	0.862900	0.352700	0.776700
C18471	C1847	0.908640	0.372150	0.810620
H13831	H1383	0.911700	0.373500	0.829300
H13841	H1384	0.924900	0.367800	0.801800
H13851	H1385	0.902200	0.388800	0.804100
C18481	C1848	0.926130	0.279920	0.841210
H13861	H1386	0.935700	0.265800	0.848200
O3091	O309	0.470040	0.764280	0.816160
O3101	O310	0.471600	0.797600	0.790100
C18491	C1849	0.463740	0.787250	0.807530
C18501	C1850	0.436040	0.793290	0.816570
C18511	C1851	0.428450	0.815330	0.810790
H13871	H1387	0.440200	0.827800	0.803900
C18521	C1852	0.399050	0.822510	0.814920
C18531	C1853	0.387610	0.849960	0.805140
C18541	C1854	0.367950	0.850300	0.828210
C18551	C1855	0.367040	0.831570	0.848570
C18561	C1856	0.390570	0.814810	0.838540
C18571	C1857	0.398960	0.789440	0.856040
H13881	H1388	0.390500	0.782100	0.870700
C18581	C1858	0.377320	0.841340	0.781890
H13891	H1389	0.390800	0.841700	0.768500
H13901	H1390	0.370900	0.823600	0.784000
H13911	H1391	0.362900	0.852700	0.776700
C18591	C1859	0.408640	0.872150	0.810620
H13921	H1392	0.411700	0.873500	0.829300
H13931	H1393	0.424900	0.867800	0.801800
H13941	H1394	0.402200	0.888800	0.804100
C18601	C1860	0.426130	0.779920	0.841210
H13951	H1395	0.435700	0.765800	0.848200
O3111	O311	0.470040	0.264280	0.316160
O3121	O312	0.471600	0.297600	0.290100
C18611	C1861	0.463740	0.287250	0.307530
C18621	C1862	0.436040	0.293290	0.316570
C18631	C1863	0.428450	0.315330	0.310790
H13961	H1396	0.440200	0.327800	0.303900
C18641	C1864	0.399050	0.322510	0.314920
C18651	C1865	0.387610	0.349960	0.305140
C18661	C1866	0.367950	0.350300	0.328210
C18671	C1867	0.367040	0.331570	0.348570
C18681	C1868	0.390570	0.314810	0.338540
C18691	C1869	0.398960	0.289440	0.356040
H13971	H1397	0.390500	0.282100	0.370700
C18701	C1870	0.377320	0.341340	0.281890
H13981	H1398	0.390800	0.341700	0.268500
H13991	H1399	0.370900	0.323600	0.284000
H14001	H1400	0.362900	0.352700	0.276700
C18711	C1871	0.408640	0.372150	0.310620
H14011	H1401	0.411700	0.373500	0.329300
H14021	H1402	0.424900	0.367800	0.301800
H14031	H1403	0.402200	0.388800	0.304100
C18721	C1872	0.426130	0.279920	0.341210
H14041	H1404	0.435700	0.265800	0.348200
O3131	O313	0.029960	0.235720	0.316160
O3141	O314	0.028400	0.202400	0.290100
C18731	C1873	0.036260	0.212750	0.307530
C18741	C1874	0.063960	0.206710	0.316570
C18751	C1875	0.071550	0.184670	0.310790
H14051	H1405	0.059800	0.172200	0.303900
C18761	C1876	0.100950	0.177490	0.314920
C18771	C1877	0.112390	0.150040	0.305140
C18781	C1878	0.132050	0.149700	0.328210
C18791	C1879	0.132960	0.168430	0.348570
C18801	C1880	0.109430	0.185190	0.338540
C18811	C1881	0.101040	0.210560	0.356040
H14061	H1406	0.109500	0.217900	0.370700
C18821	C1882	0.122680	0.158660	0.281890
H14071	H1407	0.109200	0.158300	0.268500
H14081	H1408	0.129100	0.176400	0.284000
H14091	H1409	0.137100	0.147300	0.276700
C18831	C1883	0.091360	0.127850	0.310620
H14101	H1410	0.088300	0.126500	0.329300
H14111	H1411	0.075100	0.132200	0.301800
H14121	H1412	0.097800	0.111200	0.304100
C18841	C1884	0.073870	0.220080	0.341210
H14131	H1413	0.064300	0.234200	0.348200
O3151	O315	0.029960	0.735720	0.816160
O3161	O316	0.028400	0.702400	0.790100
C18851	C1885	0.036260	0.712750	0.807530
C18861	C1886	0.063960	0.706710	0.816570
C18871	C1887	0.071550	0.684670	0.810790
H14141	H1414	0.059800	0.672200	0.803900
C18881	C1888	0.100950	0.677490	0.814920
C18891	C1889	0.112390	0.650040	0.805140
C18901	C1890	0.132050	0.649700	0.828210
C18911	C1891	0.132960	0.668430	0.848570
C18921	C1892	0.109430	0.685190	0.838540
C18931	C1893	0.101040	0.710560	0.856040
H14151	H1415	0.109500	0.717900	0.870700
C18941	C1894	0.122680	0.658660	0.781890
H14161	H1416	0.109200	0.658300	0.768500
H14171	H1417	0.129100	0.676400	0.784000
H14181	H1418	0.137100	0.647300	0.776700
C18951	C1895	0.091360	0.627850	0.810620
H14191	H1419	0.088300	0.626500	0.829300
H14201	H1420	0.075100	0.632200	0.801800
H14211	H1421	0.097800	0.611200	0.804100
C18961	C1896	0.073870	0.720080	0.841210
H14221	H1422	0.064300	0.734200	0.848200
O3171	O317	0.529960	0.235720	0.816160
O3181	O318	0.528400	0.202400	0.790100
C18971	C1897	0.536260	0.212750	0.807530
C18981	C1898	0.563960	0.206710	0.816570
C18991	C1899	0.571550	0.184670	0.810790
H14231	H1423	0.559800	0.172200	0.803900
C19001	C1900	0.600950	0.177490	0.814920
C19011	C1901	0.612390	0.150040	0.805140
C19021	C1902	0.632050	0.149700	0.828210
C19031	C1903	0.632960	0.168430	0.848570
C19041	C1904	0.609430	0.185190	0.838540
C19051	C1905	0.601040	0.210560	0.856040
H14241	H1424	0.609500	0.217900	0.870700
C19061	C1906	0.622680	0.158660	0.781890
H14251	H1425	0.609200	0.158300	0.768500
H14261	H1426	0.629100	0.176400	0.784000
H14271	H1427	0.637100	0.147300	0.776700
C19071	C1907	0.591360	0.127850	0.810620
H14281	H1428	0.588300	0.126500	0.829300
H14291	H1429	0.575100	0.132200	0.801800
H14301	H1430	0.597800	0.111200	0.804100
C19081	C1908	0.573870	0.220080	0.841210
H14311	H1431	0.564300	0.234200	0.848200
O3191	O319	0.529960	0.735720	0.316160
O3201	O320	0.528400	0.702400	0.290100
C19091	C1909	0.536260	0.712750	0.307530
C19101	C1910	0.563960	0.706710	0.316570
C19111	C1911	0.571550	0.684670	0.310790
H14321	H1432	0.559800	0.672200	0.303900
C19121	C1912	0.600950	0.677490	0.314920
C19131	C1913	0.612390	0.650040	0.305140
C19141	C1914	0.632050	0.649700	0.328210
C19151	C1915	0.632960	0.668430	0.348570
C19161	C1916	0.609430	0.685190	0.338540
C19171	C1917	0.601040	0.710560	0.356040
H14331	H1433	0.609500	0.717900	0.370700
C19181	C1918	0.622680	0.658660	0.281890
H14341	H1434	0.609200	0.658300	0.268500
H14351	H1435	0.629100	0.676400	0.284000
H14361	H1436	0.637100	0.647300	0.276700
C19191	C1919	0.591360	0.627850	0.310620
H14371	H1437	0.588300	0.626500	0.329300
H14381	H1438	0.575100	0.632200	0.301800
H14391	H1439	0.597800	0.611200	0.304100
C19201	C1920	0.573870	0.720080	0.341210
H14401	H1440	0.564300	0.734200	0.348200
O3211	O321	0.235720	0.316160	0.029960
O3221	O322	0.202400	0.290100	0.028400
C19211	C1921	0.212750	0.307530	0.036260
C19221	C1922	0.206710	0.316570	0.063960
C19231	C1923	0.184670	0.310790	0.071550
H14411	H1441	0.172200	0.303900	0.059800
C19241	C1924	0.177490	0.314920	0.100950
C19251	C1925	0.150040	0.305140	0.112390
C19261	C1926	0.149700	0.328210	0.132050
C19271	C1927	0.168430	0.348570	0.132960
C19281	C1928	0.185190	0.338540	0.109430
C19291	C1929	0.210560	0.356040	0.101040
H14421	H1442	0.217900	0.370700	0.109500
C19301	C1930	0.158660	0.281890	0.122680
H14431	H1443	0.158300	0.268500	0.109200
H14441	H1444	0.176400	0.284000	0.129100
H14451	H1445	0.147300	0.276700	0.137100
C19311	C1931	0.127850	0.310620	0.091360
H14461	H1446	0.126500	0.329300	0.088300
H14471	H1447	0.132200	0.301800	0.075100
H14481	H1448	0.111200	0.304100	0.097800
C19321	C1932	0.220080	0.341210	0.073870
H14491	H1449	0.234200	0.348200	0.064300
O3231	O323	0.235720	0.816160	0.529960
O3241	O324	0.202400	0.790100	0.528400
C19331	C1933	0.212750	0.807530	0.536260
C19341	C1934	0.206710	0.816570	0.563960
C19351	C1935	0.184670	0.810790	0.571550
H14501	H1450	0.172200	0.803900	0.559800
C19361	C1936	0.177490	0.814920	0.600950
C19371	C1937	0.150040	0.805140	0.612390
C19381	C1938	0.149700	0.828210	0.632050
C19391	C1939	0.168430	0.848570	0.632960
C19401	C1940	0.185190	0.838540	0.609430
C19411	C1941	0.210560	0.856040	0.601040
H14511	H1451	0.217900	0.870700	0.609500
C19421	C1942	0.158660	0.781890	0.622680
H14521	H1452	0.158300	0.768500	0.609200
H14531	H1453	0.176400	0.784000	0.629100
H14541	H1454	0.147300	0.776700	0.637100
C19431	C1943	0.127850	0.810620	0.591360
H14551	H1455	0.126500	0.829300	0.588300
H14561	H1456	0.132200	0.801800	0.575100
H14571	H1457	0.111200	0.804100	0.597800
C19441	C1944	0.220080	0.841210	0.573870
H14581	H1458	0.234200	0.848200	0.564300
O3251	O325	0.735720	0.316160	0.529960
O3261	O326	0.702400	0.290100	0.528400
C19451	C1945	0.712750	0.307530	0.536260
C19461	C1946	0.706710	0.316570	0.563960
C19471	C1947	0.684670	0.310790	0.571550
H14591	H1459	0.672200	0.303900	0.559800
C19481	C1948	0.677490	0.314920	0.600950
C19491	C1949	0.650040	0.305140	0.612390
C19501	C1950	0.649700	0.328210	0.632050
C19511	C1951	0.668430	0.348570	0.632960
C19521	C1952	0.685190	0.338540	0.609430
C19531	C1953	0.710560	0.356040	0.601040
H14601	H1460	0.717900	0.370700	0.609500
C19541	C1954	0.658660	0.281890	0.622680
H14611	H1461	0.658300	0.268500	0.609200
H14621	H1462	0.676400	0.284000	0.629100
H14631	H1463	0.647300	0.276700	0.637100
C19551	C1955	0.627850	0.310620	0.591360
H14641	H1464	0.626500	0.329300	0.588300
H14651	H1465	0.632200	0.301800	0.575100
H14661	H1466	0.611200	0.304100	0.597800
C19561	C1956	0.720080	0.341210	0.573870
H14671	H1467	0.734200	0.348200	0.564300
O3271	O327	0.735720	0.816160	0.029960
O3281	O328	0.702400	0.790100	0.028400
C19571	C1957	0.712750	0.807530	0.036260
C19581	C1958	0.706710	0.816570	0.063960
C19591	C1959	0.684670	0.810790	0.071550
H14681	H1468	0.672200	0.803900	0.059800
C19601	C1960	0.677490	0.814920	0.100950
C19611	C1961	0.650040	0.805140	0.112390
C19621	C1962	0.649700	0.828210	0.132050
C19631	C1963	0.668430	0.848570	0.132960
C19641	C1964	0.685190	0.838540	0.109430
C19651	C1965	0.710560	0.856040	0.101040
H14691	H1469	0.717900	0.870700	0.109500
C19661	C1966	0.658660	0.781890	0.122680
H14701	H1470	0.658300	0.768500	0.109200
H14711	H1471	0.676400	0.784000	0.129100
H14721	H1472	0.647300	0.776700	0.137100
C19671	C1967	0.627850	0.810620	0.091360
H14731	H1473	0.626500	0.829300	0.088300
H14741	H1474	0.632200	0.801800	0.075100
H14751	H1475	0.611200	0.804100	0.097800
C19681	C1968	0.720080	0.841210	0.073870
H14761	H1476	0.734200	0.848200	0.064300
O3291	O329	0.764280	0.316160	0.970040
O3301	O330	0.797600	0.290100	0.971600
C19691	C1969	0.787250	0.307530	0.963740
C19701	C1970	0.793290	0.316570	0.936040
C19711	C1971	0.815330	0.310790	0.928450
H14771	H1477	0.827800	0.303900	0.940200
C19721	C1972	0.822510	0.314920	0.899050
C19731	C1973	0.849960	0.305140	0.887610
C19741	C1974	0.850300	0.328210	0.867950
C19751	C1975	0.831570	0.348570	0.867040
C19761	C1976	0.814810	0.338540	0.890570
C19771	C1977	0.789440	0.356040	0.898960
H14781	H1478	0.782100	0.370700	0.890500
C19781	C1978	0.841340	0.281890	0.877320
H14791	H1479	0.841700	0.268500	0.890800
H14801	H1480	0.823600	0.284000	0.870900
H14811	H1481	0.852700	0.276700	0.862900
C19791	C1979	0.872150	0.310620	0.908640
H14821	H1482	0.873500	0.329300	0.911700
H14831	H1483	0.867800	0.301800	0.924900
H14841	H1484	0.888800	0.304100	0.902200
C19801	C1980	0.779920	0.341210	0.926130
H14851	H1485	0.765800	0.348200	0.935700
O3311	O331	0.764280	0.816160	0.470040
O3321	O332	0.797600	0.790100	0.471600
C19811	C1981	0.787250	0.807530	0.463740
C19821	C1982	0.793290	0.816570	0.436040
C19831	C1983	0.815330	0.810790	0.428450
H14861	H1486	0.827800	0.803900	0.440200
C19841	C1984	0.822510	0.814920	0.399050
C19851	C1985	0.849960	0.805140	0.387610
C19861	C1986	0.850300	0.828210	0.367950
C19871	C1987	0.831570	0.848570	0.367040
C19881	C1988	0.814810	0.838540	0.390570
C19891	C1989	0.789440	0.856040	0.398960
H14871	H1487	0.782100	0.870700	0.390500
C19901	C1990	0.841340	0.781890	0.377320
H14881	H1488	0.841700	0.768500	0.390800
H14891	H1489	0.823600	0.784000	0.370900
H14901	H1490	0.852700	0.776700	0.362900
C19911	C1991	0.872150	0.810620	0.408640
H14911	H1491	0.873500	0.829300	0.411700
H14921	H1492	0.867800	0.801800	0.424900
H14931	H1493	0.888800	0.804100	0.402200
C19921	C1992	0.779920	0.841210	0.426130
H14941	H1494	0.765800	0.848200	0.435700
O3331	O333	0.264280	0.316160	0.470040
O3341	O334	0.297600	0.290100	0.471600
C19931	C1993	0.287250	0.307530	0.463740
C19941	C1994	0.293290	0.316570	0.436040
C19951	C1995	0.315330	0.310790	0.428450
H14951	H1495	0.327800	0.303900	0.440200
C19961	C1996	0.322510	0.314920	0.399050
C19971	C1997	0.349960	0.305140	0.387610
C19981	C1998	0.350300	0.328210	0.367950
C19991	C1999	0.331570	0.348570	0.367040
C20001	C2000	0.314810	0.338540	0.390570
C20011	C2001	0.289440	0.356040	0.398960
H14961	H1496	0.282100	0.370700	0.390500
C20021	C2002	0.341340	0.281890	0.377320
H14971	H1497	0.341700	0.268500	0.390800
H14981	H1498	0.323600	0.284000	0.370900
H14991	H1499	0.352700	0.276700	0.362900
C20031	C2003	0.372150	0.310620	0.408640
H15001	H1500	0.373500	0.329300	0.411700
H15011	H1501	0.367800	0.301800	0.424900
H15021	H1502	0.388800	0.304100	0.402200
C20041	C2004	0.279920	0.341210	0.426130
H15031	H1503	0.265800	0.348200	0.435700
O3351	O335	0.264280	0.816160	0.970040
O3361	O336	0.297600	0.790100	0.971600
C20051	C2005	0.287250	0.807530	0.963740
C20061	C2006	0.293290	0.816570	0.936040
C20071	C2007	0.315330	0.810790	0.928450
H15041	H1504	0.327800	0.803900	0.940200
C20081	C2008	0.322510	0.814920	0.899050
C20091	C2009	0.349960	0.805140	0.887610
C20101	C2010	0.350300	0.828210	0.867950
C20111	C2011	0.331570	0.848570	0.867040
C20121	C2012	0.314810	0.838540	0.890570
C20131	C2013	0.289440	0.856040	0.898960
H15051	H1505	0.282100	0.870700	0.890500
C20141	C2014	0.341340	0.781890	0.877320
H15061	H1506	0.341700	0.768500	0.890800
H15071	H1507	0.323600	0.784000	0.870900
H15081	H1508	0.352700	0.776700	0.862900
C20151	C2015	0.372150	0.810620	0.908640
H15091	H1509	0.373500	0.829300	0.911700
H15101	H1510	0.367800	0.801800	0.924900
H15111	H1511	0.388800	0.804100	0.902200
C20161	C2016	0.279920	0.841210	0.926130
H15121	H1512	0.265800	0.848200	0.935700
O3371	O337	0.764280	0.683840	0.029960
O3381	O338	0.797600	0.709900	0.028400
C20171	C2017	0.787250	0.692470	0.036260
C20181	C2018	0.793290	0.683430	0.063960
C20191	C2019	0.815330	0.689210	0.071550
H15131	H1513	0.827800	0.696100	0.059800
C20201	C2020	0.822510	0.685080	0.100950
C20211	C2021	0.849960	0.694860	0.112390
C20221	C2022	0.850300	0.671790	0.132050
C20231	C2023	0.831570	0.651430	0.132960
C20241	C2024	0.814810	0.661460	0.109430
C20251	C2025	0.789440	0.643960	0.101040
H15141	H1514	0.782100	0.629300	0.109500
C20261	C2026	0.841340	0.718110	0.122680
H15151	H1515	0.841700	0.731500	0.109200
H15161	H1516	0.823600	0.716000	0.129100
H15171	H1517	0.852700	0.723300	0.137100
C20271	C2027	0.872150	0.689380	0.091360
H15181	H1518	0.873500	0.670700	0.088300
H15191	H1519	0.867800	0.698200	0.075100
H15201	H1520	0.888800	0.695900	0.097800
C20281	C2028	0.779920	0.658790	0.073870
H15211	H1521	0.765800	0.651800	0.064300
O3391	O339	0.764280	0.183840	0.529960
O3401	O340	0.797600	0.209900	0.528400
C20291	C2029	0.787250	0.192470	0.536260
C20301	C2030	0.793290	0.183430	0.563960
C20311	C2031	0.815330	0.189210	0.571550
H15221	H1522	0.827800	0.196100	0.559800
C20321	C2032	0.822510	0.185080	0.600950
C20331	C2033	0.849960	0.194860	0.612390
C20341	C2034	0.850300	0.171790	0.632050
C20351	C2035	0.831570	0.151430	0.632960
C20361	C2036	0.814810	0.161460	0.609430
C20371	C2037	0.789440	0.143960	0.601040
H15231	H1523	0.782100	0.129300	0.609500
C20381	C2038	0.841340	0.218110	0.622680
H15241	H1524	0.841700	0.231500	0.609200
H15251	H1525	0.823600	0.216000	0.629100
H15261	H1526	0.852700	0.223300	0.637100
C20391	C2039	0.872150	0.189380	0.591360
H15271	H1527	0.873500	0.170700	0.588300
H15281	H1528	0.867800	0.198200	0.575100
H15291	H1529	0.888800	0.195900	0.597800
C20401	C2040	0.779920	0.158790	0.573870
H15301	H1530	0.765800	0.151800	0.564300
O3411	O341	0.264280	0.683840	0.529960
O3421	O342	0.297600	0.709900	0.528400
C20411	C2041	0.287250	0.692470	0.536260
C20421	C2042	0.293290	0.683430	0.563960
C20431	C2043	0.315330	0.689210	0.571550
H15311	H1531	0.327800	0.696100	0.559800
C20441	C2044	0.322510	0.685080	0.600950
C20451	C2045	0.349960	0.694860	0.612390
C20461	C2046	0.350300	0.671790	0.632050
C20471	C2047	0.331570	0.651430	0.632960
C20481	C2048	0.314810	0.661460	0.609430
C20491	C2049	0.289440	0.643960	0.601040
H15321	H1532	0.282100	0.629300	0.609500
C20501	C2050	0.341340	0.718110	0.622680
H15331	H1533	0.341700	0.731500	0.609200
H15341	H1534	0.323600	0.716000	0.629100
H15351	H1535	0.352700	0.723300	0.637100
C20511	C2051	0.372150	0.689380	0.591360
H15361	H1536	0.373500	0.670700	0.588300
H15371	H1537	0.367800	0.698200	0.575100
H15381	H1538	0.388800	0.695900	0.597800
C20521	C2052	0.279920	0.658790	0.573870
H15391	H1539	0.265800	0.651800	0.564300
O3431	O343	0.264280	0.183840	0.029960
O3441	O344	0.297600	0.209900	0.028400
C20531	C2053	0.287250	0.192470	0.036260
C20541	C2054	0.293290	0.183430	0.063960
C20551	C2055	0.315330	0.189210	0.071550
H15401	H1540	0.327800	0.196100	0.059800
C20561	C2056	0.322510	0.185080	0.100950
C20571	C2057	0.349960	0.194860	0.112390
C20581	C2058	0.350300	0.171790	0.132050
C20591	C2059	0.331570	0.151430	0.132960
C20601	C2060	0.314810	0.161460	0.109430
C20611	C2061	0.289440	0.143960	0.101040
H15411	H1541	0.282100	0.129300	0.109500
C20621	C2062	0.341340	0.218110	0.122680
H15421	H1542	0.341700	0.231500	0.109200
H15431	H1543	0.323600	0.216000	0.129100
H15441	H1544	0.352700	0.223300	0.137100
C20631	C2063	0.372150	0.189380	0.091360
H15451	H1545	0.373500	0.170700	0.088300
H15461	H1546	0.367800	0.198200	0.075100
H15471	H1547	0.388800	0.195900	0.097800
C20641	C2064	0.279920	0.158790	0.073870
H15481	H1548	0.265800	0.151800	0.064300
O3451	O345	0.235720	0.683840	0.970040
O3461	O346	0.202400	0.709900	0.971600
C20651	C2065	0.212750	0.692470	0.963740
C20661	C2066	0.206710	0.683430	0.936040
C20671	C2067	0.184670	0.689210	0.928450
H15491	H1549	0.172200	0.696100	0.940200
C20681	C2068	0.177490	0.685080	0.899050
C20691	C2069	0.150040	0.694860	0.887610
C20701	C2070	0.149700	0.671790	0.867950
C20711	C2071	0.168430	0.651430	0.867040
C20721	C2072	0.185190	0.661460	0.890570
C20731	C2073	0.210560	0.643960	0.898960
H15501	H1550	0.217900	0.629300	0.890500
C20741	C2074	0.158660	0.718110	0.877320
H15511	H1551	0.158300	0.731500	0.890800
H15521	H1552	0.176400	0.716000	0.870900
H15531	H1553	0.147300	0.723300	0.862900
C20751	C2075	0.127850	0.689380	0.908640
H15541	H1554	0.126500	0.670700	0.911700
H15551	H1555	0.132200	0.698200	0.924900
H15561	H1556	0.111200	0.695900	0.902200
C20761	C2076	0.220080	0.658790	0.926130
H15571	H1557	0.234200	0.651800	0.935700
O3471	O347	0.235720	0.183840	0.470040
O3481	O348	0.202400	0.209900	0.471600
C20771	C2077	0.212750	0.192470	0.463740
C20781	C2078	0.206710	0.183430	0.436040
C20791	C2079	0.184670	0.189210	0.428450
H15581	H1558	0.172200	0.196100	0.440200
C20801	C2080	0.177490	0.185080	0.399050
C20811	C2081	0.150040	0.194860	0.387610
C20821	C2082	0.149700	0.171790	0.367950
C20831	C2083	0.168430	0.151430	0.367040
C20841	C2084	0.185190	0.161460	0.390570
C20851	C2085	0.210560	0.143960	0.398960
H15591	H1559	0.217900	0.129300	0.390500
C20861	C2086	0.158660	0.218110	0.377320
H15601	H1560	0.158300	0.231500	0.390800
H15611	H1561	0.176400	0.216000	0.370900
H15621	H1562	0.147300	0.223300	0.362900
C20871	C2087	0.127850	0.189380	0.408640
H15631	H1563	0.126500	0.170700	0.411700
H15641	H1564	0.132200	0.198200	0.424900
H15651	H1565	0.111200	0.195900	0.402200
C20881	C2088	0.220080	0.158790	0.426130
H15661	H1566	0.234200	0.151800	0.435700
O3491	O349	0.735720	0.683840	0.470040
O3501	O350	0.702400	0.709900	0.471600
C20891	C2089	0.712750	0.692470	0.463740
C20901	C2090	0.706710	0.683430	0.436040
C20911	C2091	0.684670	0.689210	0.428450
H15671	H1567	0.672200	0.696100	0.440200
C20921	C2092	0.677490	0.685080	0.399050
C20931	C2093	0.650040	0.694860	0.387610
C20941	C2094	0.649700	0.671790	0.367950
C20951	C2095	0.668430	0.651430	0.367040
C20961	C2096	0.685190	0.661460	0.390570
C20971	C2097	0.710560	0.643960	0.398960
H15681	H1568	0.717900	0.629300	0.390500
C20981	C2098	0.658660	0.718110	0.377320
H15691	H1569	0.658300	0.731500	0.390800
H15701	H1570	0.676400	0.716000	0.370900
H15711	H1571	0.647300	0.723300	0.362900
C20991	C2099	0.627850	0.689380	0.408640
H15721	H1572	0.626500	0.670700	0.411700
H15731	H1573	0.632200	0.698200	0.424900
H15741	H1574	0.611200	0.695900	0.402200
C21001	C2100	0.720080	0.658790	0.426130
H15751	H1575	0.734200	0.651800	0.435700
O3511	O351	0.735720	0.183840	0.970040
O3521	O352	0.702400	0.209900	0.971600
C21011	C2101	0.712750	0.192470	0.963740
C21021	C2102	0.706710	0.183430	0.936040
C21031	C2103	0.684670	0.189210	0.928450
H15761	H1576	0.672200	0.196100	0.940200
C21041	C2104	0.677490	0.185080	0.899050
C21051	C2105	0.650040	0.194860	0.887610
C21061	C2106	0.649700	0.171790	0.867950
C21071	C2107	0.668430	0.151430	0.867040
C21081	C2108	0.685190	0.161460	0.890570
C21091	C2109	0.710560	0.143960	0.898960
H15771	H1577	0.717900	0.129300	0.890500
C21101	C2110	0.658660	0.218110	0.877320
H15781	H1578	0.658300	0.231500	0.890800
H15791	H1579	0.676400	0.216000	0.870900
H15801	H1580	0.647300	0.223300	0.862900
C21111	C2111	0.627850	0.189380	0.908640
H15811	H1581	0.626500	0.170700	0.911700
H15821	H1582	0.632200	0.198200	0.924900
H15831	H1583	0.611200	0.195900	0.902200
C21121	C2112	0.720080	0.158790	0.926130
H15841	H1584	0.734200	0.151800	0.935700
O3531	O353	0.316160	0.970040	0.764280
O3541	O354	0.290100	0.971600	0.797600
C21131	C2113	0.307530	0.963740	0.787250
C21141	C2114	0.316570	0.936040	0.793290
C21151	C2115	0.310790	0.928450	0.815330
H15851	H1585	0.303900	0.940200	0.827800
C21161	C2116	0.314920	0.899050	0.822510
C21171	C2117	0.305140	0.887610	0.849960
C21181	C2118	0.328210	0.867950	0.850300
C21191	C2119	0.348570	0.867040	0.831570
C21201	C2120	0.338540	0.890570	0.814810
C21211	C2121	0.356040	0.898960	0.789440
H15861	H1586	0.370700	0.890500	0.782100
C21221	C2122	0.281890	0.877320	0.841340
H15871	H1587	0.268500	0.890800	0.841700
H15881	H1588	0.284000	0.870900	0.823600
H15891	H1589	0.276700	0.862900	0.852700
C21231	C2123	0.310620	0.908640	0.872150
H15901	H1590	0.329300	0.911700	0.873500
H15911	H1591	0.301800	0.924900	0.867800
H15921	H1592	0.304100	0.902200	0.888800
C21241	C2124	0.341210	0.926130	0.779920
H15931	H1593	0.348200	0.935700	0.765800
O3551	O355	0.316160	0.470040	0.264280
O3561	O356	0.290100	0.471600	0.297600
C21251	C2125	0.307530	0.463740	0.287250
C21261	C2126	0.316570	0.436040	0.293290
C21271	C2127	0.310790	0.428450	0.315330
H15941	H1594	0.303900	0.440200	0.327800
C21281	C2128	0.314920	0.399050	0.322510
C21291	C2129	0.305140	0.387610	0.349960
C21301	C2130	0.328210	0.367950	0.350300
C21311	C2131	0.348570	0.367040	0.331570
C21321	C2132	0.338540	0.390570	0.314810
C21331	C2133	0.356040	0.398960	0.289440
H15951	H1595	0.370700	0.390500	0.282100
C21341	C2134	0.281890	0.377320	0.341340
H15961	H1596	0.268500	0.390800	0.341700
H15971	H1597	0.284000	0.370900	0.323600
H15981	H1598	0.276700	0.362900	0.352700
C21351	C2135	0.310620	0.408640	0.372150
H15991	H1599	0.329300	0.411700	0.373500
H16001	H1600	0.301800	0.424900	0.367800
H16011	H1601	0.304100	0.402200	0.388800
C21361	C2136	0.341210	0.426130	0.279920
H16021	H1602	0.348200	0.435700	0.265800
O3571	O357	0.816160	0.970040	0.264280
O3581	O358	0.790100	0.971600	0.297600
C21371	C2137	0.807530	0.963740	0.287250
C21381	C2138	0.816570	0.936040	0.293290
C21391	C2139	0.810790	0.928450	0.315330
H16031	H1603	0.803900	0.940200	0.327800
C21401	C2140	0.814920	0.899050	0.322510
C21411	C2141	0.805140	0.887610	0.349960
C21421	C2142	0.828210	0.867950	0.350300
C21431	C2143	0.848570	0.867040	0.331570
C21441	C2144	0.838540	0.890570	0.314810
C21451	C2145	0.856040	0.898960	0.289440
H16041	H1604	0.870700	0.890500	0.282100
C21461	C2146	0.781890	0.877320	0.341340
H16051	H1605	0.768500	0.890800	0.341700
H16061	H1606	0.784000	0.870900	0.323600
H16071	H1607	0.776700	0.862900	0.352700
C21471	C2147	0.810620	0.908640	0.372150
H16081	H1608	0.829300	0.911700	0.373500
H16091	H1609	0.801800	0.924900	0.367800
H16101	H1610	0.804100	0.902200	0.388800
C21481	C2148	0.841210	0.926130	0.279920
H16111	H1611	0.848200	0.935700	0.265800
O3591	O359	0.816160	0.470040	0.764280
O3601	O360	0.790100	0.471600	0.797600
C21491	C2149	0.807530	0.463740	0.787250
C21501	C2150	0.816570	0.436040	0.793290
C21511	C2151	0.810790	0.428450	0.815330
H16121	H1612	0.803900	0.440200	0.827800
C21521	C2152	0.814920	0.399050	0.822510
C21531	C2153	0.805140	0.387610	0.849960
C21541	C2154	0.828210	0.367950	0.850300
C21551	C2155	0.848570	0.367040	0.831570
C21561	C2156	0.838540	0.390570	0.814810
C21571	C2157	0.856040	0.398960	0.789440
H16131	H1613	0.870700	0.390500	0.782100
C21581	C2158	0.781890	0.377320	0.841340
H16141	H1614	0.768500	0.390800	0.841700
H16151	H1615	0.784000	0.370900	0.823600
H16161	H1616	0.776700	0.362900	0.852700
C21591	C2159	0.810620	0.408640	0.872150
H16171	H1617	0.829300	0.411700	0.873500
H16181	H1618	0.801800	0.424900	0.867800
H16191	H1619	0.804100	0.402200	0.888800
C21601	C2160	0.841210	0.426130	0.779920
H16201	H1620	0.848200	0.435700	0.765800
O3611	O361	0.316160	0.029960	0.235720
O3621	O362	0.290100	0.028400	0.202400
C21611	C2161	0.307530	0.036260	0.212750
C21621	C2162	0.316570	0.063960	0.206710
C21631	C2163	0.310790	0.071550	0.184670
H16211	H1621	0.303900	0.059800	0.172200
C21641	C2164	0.314920	0.100950	0.177490
C21651	C2165	0.305140	0.112390	0.150040
C21661	C2166	0.328210	0.132050	0.149700
C21671	C2167	0.348570	0.132960	0.168430
C21681	C2168	0.338540	0.109430	0.185190
C21691	C2169	0.356040	0.101040	0.210560
H16221	H1622	0.370700	0.109500	0.217900
C21701	C2170	0.281890	0.122680	0.158660
H16231	H1623	0.268500	0.109200	0.158300
H16241	H1624	0.284000	0.129100	0.176400
H16251	H1625	0.276700	0.137100	0.147300
C21711	C2171	0.310620	0.091360	0.127850
H16261	H1626	0.329300	0.088300	0.126500
H16271	H1627	0.301800	0.075100	0.132200
H16281	H1628	0.304100	0.097800	0.111200
C21721	C2172	0.341210	0.073870	0.220080
H16291	H1629	0.348200	0.064300	0.234200
O3631	O363	0.316160	0.529960	0.735720
O3641	O364	0.290100	0.528400	0.702400
C21731	C2173	0.307530	0.536260	0.712750
C21741	C2174	0.316570	0.563960	0.706710
C21751	C2175	0.310790	0.571550	0.684670
H16301	H1630	0.303900	0.559800	0.672200
C21761	C2176	0.314920	0.600950	0.677490
C21771	C2177	0.305140	0.612390	0.650040
C21781	C2178	0.328210	0.632050	0.649700
C21791	C2179	0.348570	0.632960	0.668430
C21801	C2180	0.338540	0.609430	0.685190
C21811	C2181	0.356040	0.601040	0.710560
H16311	H1631	0.370700	0.609500	0.717900
C21821	C2182	0.281890	0.622680	0.658660
H16321	H1632	0.268500	0.609200	0.658300
H16331	H1633	0.284000	0.629100	0.676400
H16341	H1634	0.276700	0.637100	0.647300
C21831	C2183	0.310620	0.591360	0.627850
H16351	H1635	0.329300	0.588300	0.626500
H16361	H1636	0.301800	0.575100	0.632200
H16371	H1637	0.304100	0.597800	0.611200
C21841	C2184	0.341210	0.573870	0.720080
H16381	H1638	0.348200	0.564300	0.734200
O3651	O365	0.816160	0.029960	0.735720
O3661	O366	0.790100	0.028400	0.702400
C21851	C2185	0.807530	0.036260	0.712750
C21861	C2186	0.816570	0.063960	0.706710
C21871	C2187	0.810790	0.071550	0.684670
H16391	H1639	0.803900	0.059800	0.672200
C21881	C2188	0.814920	0.100950	0.677490
C21891	C2189	0.805140	0.112390	0.650040
C21901	C2190	0.828210	0.132050	0.649700
C21911	C2191	0.848570	0.132960	0.668430
C21921	C2192	0.838540	0.109430	0.685190
C21931	C2193	0.856040	0.101040	0.710560
H16401	H1640	0.870700	0.109500	0.717900
C21941	C2194	0.781890	0.122680	0.658660
H16411	H1641	0.768500	0.109200	0.658300
H16421	H1642	0.784000	0.129100	0.676400
H16431	H1643	0.776700	0.137100	0.647300
C21951	C2195	0.810620	0.091360	0.627850
H16441	H1644	0.829300	0.088300	0.626500
H16451	H1645	0.801800	0.075100	0.632200
H16461	H1646	0.804100	0.097800	0.611200
C21961	C2196	0.841210	0.073870	0.720080
H16471	H1647	0.848200	0.064300	0.734200
O3671	O367	0.816160	0.529960	0.235720
O3681	O368	0.790100	0.528400	0.202400
C21971	C2197	0.807530	0.536260	0.212750
C21981	C2198	0.816570	0.563960	0.206710
C21991	C2199	0.810790	0.571550	0.184670
H16481	H1648	0.803900	0.559800	0.172200
C22001	C2200	0.814920	0.600950	0.177490
C22011	C2201	0.805140	0.612390	0.150040
C22021	C2202	0.828210	0.632050	0.149700
C22031	C2203	0.848570	0.632960	0.168430
C22041	C2204	0.838540	0.609430	0.185190
C22051	C2205	0.856040	0.601040	0.210560
H16491	H1649	0.870700	0.609500	0.217900
C22061	C2206	0.781890	0.622680	0.158660
H16501	H1650	0.768500	0.609200	0.158300
H16511	H1651	0.784000	0.629100	0.176400
H16521	H1652	0.776700	0.637100	0.147300
C22071	C2207	0.810620	0.591360	0.127850
H16531	H1653	0.829300	0.588300	0.126500
H16541	H1654	0.801800	0.575100	0.132200
H16551	H1655	0.804100	0.597800	0.111200
C22081	C2208	0.841210	0.573870	0.220080
H16561	H1656	0.848200	0.564300	0.234200
O3691	O369	0.683840	0.970040	0.235720
O3701	O370	0.709900	0.971600	0.202400
C22091	C2209	0.692470	0.963740	0.212750
C22101	C2210	0.683430	0.936040	0.206710
C22111	C2211	0.689210	0.928450	0.184670
H16571	H1657	0.696100	0.940200	0.172200
C22121	C2212	0.685080	0.899050	0.177490
C22131	C2213	0.694860	0.887610	0.150040
C22141	C2214	0.671790	0.867950	0.149700
C22151	C2215	0.651430	0.867040	0.168430
C22161	C2216	0.661460	0.890570	0.185190
C22171	C2217	0.643960	0.898960	0.210560
H16581	H1658	0.629300	0.890500	0.217900
C22181	C2218	0.718110	0.877320	0.158660
H16591	H1659	0.731500	0.890800	0.158300
H16601	H1660	0.716000	0.870900	0.176400
H16611	H1661	0.723300	0.862900	0.147300
C22191	C2219	0.689380	0.908640	0.127850
H16621	H1662	0.670700	0.911700	0.126500
H16631	H1663	0.698200	0.924900	0.132200
H16641	H1664	0.695900	0.902200	0.111200
C22201	C2220	0.658790	0.926130	0.220080
H16651	H1665	0.651800	0.935700	0.234200
O3711	O371	0.683840	0.470040	0.735720
O3721	O372	0.709900	0.471600	0.702400
C22211	C2221	0.692470	0.463740	0.712750
C22221	C2222	0.683430	0.436040	0.706710
C22231	C2223	0.689210	0.428450	0.684670
H16661	H1666	0.696100	0.440200	0.672200
C22241	C2224	0.685080	0.399050	0.677490
C22251	C2225	0.694860	0.387610	0.650040
C22261	C2226	0.671790	0.367950	0.649700
C22271	C2227	0.651430	0.367040	0.668430
C22281	C2228	0.661460	0.390570	0.685190
C22291	C2229	0.643960	0.398960	0.710560
H16671	H1667	0.629300	0.390500	0.717900
C22301	C2230	0.718110	0.377320	0.658660
H16681	H1668	0.731500	0.390800	0.658300
H16691	H1669	0.716000	0.370900	0.676400
H16701	H1670	0.723300	0.362900	0.647300
C22311	C2231	0.689380	0.408640	0.627850
H16711	H1671	0.670700	0.411700	0.626500
H16721	H1672	0.698200	0.424900	0.632200
H16731	H1673	0.695900	0.402200	0.611200
C22321	C2232	0.658790	0.426130	0.720080
H16741	H1674	0.651800	0.435700	0.734200
O3731	O373	0.183840	0.970040	0.735720
O3741	O374	0.209900	0.971600	0.702400
C22331	C2233	0.192470	0.963740	0.712750
C22341	C2234	0.183430	0.936040	0.706710
C22351	C2235	0.189210	0.928450	0.684670
H16751	H1675	0.196100	0.940200	0.672200
C22361	C2236	0.185080	0.899050	0.677490
C22371	C2237	0.194860	0.887610	0.650040
C22381	C2238	0.171790	0.867950	0.649700
C22391	C2239	0.151430	0.867040	0.668430
C22401	C2240	0.161460	0.890570	0.685190
C22411	C2241	0.143960	0.898960	0.710560
H16761	H1676	0.129300	0.890500	0.717900
C22421	C2242	0.218110	0.877320	0.658660
H16771	H1677	0.231500	0.890800	0.658300
H16781	H1678	0.216000	0.870900	0.676400
H16791	H1679	0.223300	0.862900	0.647300
C22431	C2243	0.189380	0.908640	0.627850
H16801	H1680	0.170700	0.911700	0.626500
H16811	H1681	0.198200	0.924900	0.632200
H16821	H1682	0.195900	0.902200	0.611200
C22441	C2244	0.158790	0.926130	0.720080
H16831	H1683	0.151800	0.935700	0.734200
O3751	O375	0.183840	0.470040	0.235720
O3761	O376	0.209900	0.471600	0.202400
C22451	C2245	0.192470	0.463740	0.212750
C22461	C2246	0.183430	0.436040	0.206710
C22471	C2247	0.189210	0.428450	0.184670
H16841	H1684	0.196100	0.440200	0.172200
C22481	C2248	0.185080	0.399050	0.177490
C22491	C2249	0.194860	0.387610	0.150040
C22501	C2250	0.171790	0.367950	0.149700
C22511	C2251	0.151430	0.367040	0.168430
C22521	C2252	0.161460	0.390570	0.185190
C22531	C2253	0.143960	0.398960	0.210560
H16851	H1685	0.129300	0.390500	0.217900
C22541	C2254	0.218110	0.377320	0.158660
H16861	H1686	0.231500	0.390800	0.158300
H16871	H1687	0.216000	0.370900	0.176400
H16881	H1688	0.223300	0.362900	0.147300
C22551	C2255	0.189380	0.408640	0.127850
H16891	H1689	0.170700	0.411700	0.126500
H16901	H1690	0.198200	0.424900	0.132200
H16911	H1691	0.195900	0.402200	0.111200
C22561	C2256	0.158790	0.426130	0.220080
H16921	H1692	0.151800	0.435700	0.234200
O3771	O377	0.683840	0.029960	0.764280
O3781	O378	0.709900	0.028400	0.797600
C22571	C2257	0.692470	0.036260	0.787250
C22581	C2258	0.683430	0.063960	0.793290
C22591	C2259	0.689210	0.071550	0.815330
H16931	H1693	0.696100	0.059800	0.827800
C22601	C2260	0.685080	0.100950	0.822510
C22611	C2261	0.694860	0.112390	0.849960
C22621	C2262	0.671790	0.132050	0.850300
C22631	C2263	0.651430	0.132960	0.831570
C22641	C2264	0.661460	0.109430	0.814810
C22651	C2265	0.643960	0.101040	0.789440
H16941	H1694	0.629300	0.109500	0.782100
C22661	C2266	0.718110	0.122680	0.841340
H16951	H1695	0.731500	0.109200	0.841700
H16961	H1696	0.716000	0.129100	0.823600
H16971	H1697	0.723300	0.137100	0.852700
C22671	C2267	0.689380	0.091360	0.872150
H16981	H1698	0.670700	0.088300	0.873500
H16991	H1699	0.698200	0.075100	0.867800
H17001	H1700	0.695900	0.097800	0.888800
C22681	C2268	0.658790	0.073870	0.779920
H17011	H1701	0.651800	0.064300	0.765800
O3791	O379	0.683840	0.529960	0.264280
O3801	O380	0.709900	0.528400	0.297600
C22691	C2269	0.692470	0.536260	0.287250
C22701	C2270	0.683430	0.563960	0.293290
C22711	C2271	0.689210	0.571550	0.315330
H17021	H1702	0.696100	0.559800	0.327800
C22721	C2272	0.685080	0.600950	0.322510
C22731	C2273	0.694860	0.612390	0.349960
C22741	C2274	0.671790	0.632050	0.350300
C22751	C2275	0.651430	0.632960	0.331570
C22761	C2276	0.661460	0.609430	0.314810
C22771	C2277	0.643960	0.601040	0.289440
H17031	H1703	0.629300	0.609500	0.282100
C22781	C2278	0.718110	0.622680	0.341340
H17041	H1704	0.731500	0.609200	0.341700
H17051	H1705	0.716000	0.629100	0.323600
H17061	H1706	0.723300	0.637100	0.352700
C22791	C2279	0.689380	0.591360	0.372150
H17071	H1707	0.670700	0.588300	0.373500
H17081	H1708	0.698200	0.575100	0.367800
H17091	H1709	0.695900	0.597800	0.388800
C22801	C2280	0.658790	0.573870	0.279920
H17101	H1710	0.651800	0.564300	0.265800
O3811	O381	0.183840	0.029960	0.264280
O3821	O382	0.209900	0.028400	0.297600
C22811	C2281	0.192470	0.036260	0.287250
C22821	C2282	0.183430	0.063960	0.293290
C22831	C2283	0.189210	0.071550	0.315330
H17111	H1711	0.196100	0.059800	0.327800
C22841	C2284	0.185080	0.100950	0.322510
C22851	C2285	0.194860	0.112390	0.349960
C22861	C2286	0.171790	0.132050	0.350300
C22871	C2287	0.151430	0.132960	0.331570
C22881	C2288	0.161460	0.109430	0.314810
C22891	C2289	0.143960	0.101040	0.289440
H17121	H1712	0.129300	0.109500	0.282100
C22901	C2290	0.218110	0.122680	0.341340
H17131	H1713	0.231500	0.109200	0.341700
H17141	H1714	0.216000	0.129100	0.323600
H17151	H1715	0.223300	0.137100	0.352700
C22911	C2291	0.189380	0.091360	0.372150
H17161	H1716	0.170700	0.088300	0.373500
H17171	H1717	0.198200	0.075100	0.367800
H17181	H1718	0.195900	0.097800	0.388800
C22921	C2292	0.158790	0.073870	0.279920
H17191	H1719	0.151800	0.064300	0.265800
O3831	O383	0.183840	0.529960	0.764280
O3841	O384	0.209900	0.528400	0.797600
C22931	C2293	0.192470	0.536260	0.787250
C22941	C2294	0.183430	0.563960	0.793290
C22951	C2295	0.189210	0.571550	0.815330
H17201	H1720	0.196100	0.559800	0.827800
C22961	C2296	0.185080	0.600950	0.822510
C22971	C2297	0.194860	0.612390	0.849960
C22981	C2298	0.171790	0.632050	0.850300
C22991	C2299	0.151430	0.632960	0.831570
C23001	C2300	0.161460	0.609430	0.814810
C23011	C2301	0.143960	0.601040	0.789440
H17211	H1721	0.129300	0.609500	0.782100
C23021	C2302	0.218110	0.622680	0.841340
H17221	H1722	0.231500	0.609200	0.841700
H17231	H1723	0.216000	0.629100	0.823600
H17241	H1724	0.223300	0.637100	0.852700
C23031	C2303	0.189380	0.591360	0.872150
H17251	H1725	0.170700	0.588300	0.873500
H17261	H1726	0.198200	0.575100	0.867800
H17271	H1727	0.195900	0.597800	0.888800
C23041	C2304	0.158790	0.573870	0.779920
H17281	H1728	0.151800	0.564300	0.765800
Y11	Y1	0.233110	0.500000	0.186540
Y21	Y2	0.233110	0.000000	0.686540
Y31	Y3	0.733110	0.500000	0.686540
Y41	Y4	0.733110	0.000000	0.186540
Y51	Y5	0.766890	0.500000	0.186540
Y61	Y6	0.766890	0.000000	0.686540
Y71	Y7	0.266890	0.500000	0.686540
Y81	Y8	0.266890	0.000000	0.186540
Y91	Y9	0.766890	0.500000	0.813460
Y101	Y10	0.766890	0.000000	0.313460
Y111	Y11	0.266890	0.500000	0.313460
Y121	Y12	0.266890	0.000000	0.813460
Y131	Y13	0.233110	0.500000	0.813460
Y141	Y14	0.233110	0.000000	0.313460
Y151	Y15	0.733110	0.500000	0.313460
Y161	Y16	0.733110	0.000000	0.813460
Y171	Y17	0.186540	0.233110	0.500000
Y181	Y18	0.186540	0.733110	0.000000
Y191	Y19	0.686540	0.233110	0.000000
Y201	Y20	0.686540	0.733110	0.500000
Y211	Y21	0.186540	0.766890	0.500000
Y221	Y22	0.186540	0.266890	0.000000
Y231	Y23	0.686540	0.766890	0.000000
Y241	Y24	0.686540	0.266890	0.500000
Y251	Y25	0.813460	0.766890	0.500000
Y261	Y26	0.813460	0.266890	0.000000
Y271	Y27	0.313460	0.766890	0.000000
Y281	Y28	0.313460	0.266890	0.500000
Y291	Y29	0.813460	0.233110	0.500000
Y301	Y30	0.813460	0.733110	0.000000
Y311	Y31	0.313460	0.233110	0.000000
Y321	Y32	0.313460	0.733110	0.500000
Y331	Y33	0.500000	0.186540	0.233110
Y341	Y34	0.500000	0.686540	0.733110
Y351	Y35	0.000000	0.186540	0.733110
Y361	Y36	0.000000	0.686540	0.233110
Y371	Y37	0.500000	0.186540	0.766890
Y381	Y38	0.500000	0.686540	0.266890
Y391	Y39	0.000000	0.186540	0.266890
Y401	Y40	0.000000	0.686540	0.766890
Y411	Y41	0.500000	0.813460	0.766890
Y421	Y42	0.500000	0.313460	0.266890
Y431	Y43	0.000000	0.813460	0.266890
Y441	Y44	0.000000	0.313460	0.766890
Y451	Y45	0.500000	0.813460	0.233110
Y461	Y46	0.500000	0.313460	0.733110
Y471	Y47	0.000000	0.813460	0.733110
Y481	Y48	0.000000	0.313460	0.233110
Y491	Y49	0.000000	0.733110	0.313460
Y501	Y50	0.000000	0.233110	0.813460
Y511	Y51	0.500000	0.733110	0.813460
Y521	Y52	0.500000	0.233110	0.313460
Y531	Y53	0.000000	0.266890	0.313460
Y541	Y54	0.000000	0.766890	0.813460
Y551	Y55	0.500000	0.266890	0.813460
Y561	Y56	0.500000	0.766890	0.313460
Y571	Y57	0.000000	0.266890	0.686540
Y581	Y58	0.000000	0.766890	0.186540
Y591	Y59	0.500000	0.266890	0.186540
Y601	Y60	0.500000	0.766890	0.686540
Y611	Y61	0.000000	0.733110	0.686540
Y621	Y62	0.000000	0.233110	0.186540
Y631	Y63	0.500000	0.733110	0.186540
Y641	Y64	0.500000	0.233110	0.686540
Y651	Y65	0.733110	0.686540	0.000000
Y661	Y66	0.733110	0.186540	0.500000
Y671	Y67	0.233110	0.686540	0.500000
Y681	Y68	0.233110	0.186540	0.000000
Y691	Y69	0.266890	0.686540	0.000000
Y701	Y70	0.266890	0.186540	0.500000
Y711	Y71	0.766890	0.686540	0.500000
Y721	Y72	0.766890	0.186540	0.000000
Y731	Y73	0.266890	0.313460	0.000000
Y741	Y74	0.266890	0.813460	0.500000
Y751	Y75	0.766890	0.313460	0.500000
Y761	Y76	0.766890	0.813460	0.000000
Y771	Y77	0.733110	0.313460	0.000000
Y781	Y78	0.733110	0.813460	0.500000
Y791	Y79	0.233110	0.313460	0.500000
Y801	Y80	0.233110	0.813460	0.000000
Y811	Y81	0.686540	0.000000	0.266890
Y821	Y82	0.686540	0.500000	0.766890
Y831	Y83	0.186540	0.000000	0.766890
Y841	Y84	0.186540	0.500000	0.266890
Y851	Y85	0.686540	0.000000	0.733110
Y861	Y86	0.686540	0.500000	0.233110
Y871	Y87	0.186540	0.000000	0.233110
Y881	Y88	0.186540	0.500000	0.733110
Y891	Y89	0.313460	0.000000	0.733110
Y901	Y90	0.313460	0.500000	0.233110
Y911	Y91	0.813460	0.000000	0.233110
Y921	Y92	0.813460	0.500000	0.733110
Y931	Y93	0.313460	0.000000	0.266890
Y941	Y94	0.313460	0.500000	0.766890
Y951	Y95	0.813460	0.000000	0.766890
Y961	Y96	0.813460	0.500000	0.266890
