data_ZUDXAZ_clean_PM
_symmetry_space_group_name_H-M	'P1'
_cell_length_a	6.668700
_cell_length_b	12.245000
_cell_length_c	9.030500
_cell_angle_alpha	90.000000
_cell_angle_beta	110.439000
_cell_angle_gamma	90.000000
_symmetry_Int_Tables_number 1

loop_
_symmetry_equiv_pos_as_xyz
'x,y,z'

loop_
_atom_site_label
_atom_site_type_symbol
_atom_site_fract_x
_atom_site_fract_y
_atom_site_fract_z
N11	N1	0.418000	0.123400	0.146800
N21	N2	0.209000	0.124800	0.140600
N31	N3	0.522000	0.196400	0.248900
C11	C1	0.204000	0.201800	0.242500
N41	N4	0.399000	0.247900	0.312700
N51	N5	0.997100	0.233600	0.270000
H11	H1	0.879000	0.201100	0.218500
H21	H2	0.999300	0.284000	0.337000
F11	F1	0.204100	0.384200	0.520600
N61	N6	0.582000	0.123400	0.853200
N71	N7	0.791000	0.124800	0.859400
N81	N8	0.478000	0.196400	0.751100
C21	C2	0.796000	0.201800	0.757500
N91	N9	0.601000	0.247900	0.687300
N101	N10	0.002900	0.233600	0.730000
H31	H3	0.121000	0.201100	0.781500
H41	H4	0.000700	0.284000	0.663000
F21	F2	0.795900	0.384200	0.479400
N111	N11	0.582000	0.876600	0.853200
N121	N12	0.791000	0.875200	0.859400
N131	N13	0.478000	0.803600	0.751100
C31	C3	0.796000	0.798200	0.757500
N141	N14	0.601000	0.752100	0.687300
N151	N15	0.002900	0.766400	0.730000
H51	H5	0.121000	0.798900	0.781500
H61	H6	0.000700	0.716000	0.663000
F31	F3	0.795900	0.615800	0.479400
N161	N16	0.418000	0.876600	0.146800
N171	N17	0.209000	0.875200	0.140600
N181	N18	0.522000	0.803600	0.248900
C41	C4	0.204000	0.798200	0.242500
N191	N19	0.399000	0.752100	0.312700
N201	N20	0.997100	0.766400	0.270000
H71	H7	0.879000	0.798900	0.218500
H81	H8	0.999300	0.716000	0.337000
F41	F4	0.204100	0.615800	0.520600
Fe11	Fe1	0.500000	0.000000	0.000000
F51	F5	0.190000	0.000000	0.863900
F61	F6	0.810000	0.000000	0.136100
Fe21	Fe2	0.000000	0.000000	0.000000
Fe31	Fe3	0.500000	0.365930	0.500000
Fe41	Fe4	0.500000	0.634070	0.500000
O11	O1	0.587000	0.500000	0.660600
F71	F7	0.413000	0.500000	0.339400
Fe51	Fe5	0.000000	0.500000	0.500000
