data_ZUGDEM_clean_PM
_symmetry_space_group_name_H-M	'P1'
_cell_length_a	14.207900
_cell_length_b	17.229500
_cell_length_c	26.158400
_cell_angle_alpha	88.764000
_cell_angle_beta	74.470000
_cell_angle_gamma	70.377000
_symmetry_Int_Tables_number 1

loop_
_symmetry_equiv_pos_as_xyz
'x,y,z'

loop_
_atom_site_label
_atom_site_type_symbol
_atom_site_fract_x
_atom_site_fract_y
_atom_site_fract_z
Zn11	Zn1	0.110050	0.799770	0.420050
Zn21	Zn2	0.173060	0.619110	0.477820
Zn31	Zn3	0.468960	0.218430	0.708650
Zn41	Zn4	0.666200	0.116120	0.008830
Zn51	Zn5	0.855840	0.278870	0.198510
Zn61	Zn6	0.570250	0.313810	0.071350
C11	C1	0.326400	0.671000	0.395300
C21	C2	0.323800	0.787200	0.363200
H11	H1	0.299000	0.842500	0.356300
C31	C3	0.425500	0.661200	0.363300
C41	C4	0.502400	0.584400	0.353300
C51	C5	0.384100	0.536000	0.409000
H21	H2	0.372900	0.491000	0.426500
C61	C6	0.057500	0.829400	0.588200
C71	C7	0.084200	0.794000	0.632300
H31	H3	0.122600	0.738000	0.630400
C81	C8	0.054100	0.841600	0.679000
C91	C9	0.005600	0.927100	0.679800
H41	H4	0.984900	0.959700	0.711500
C101	C10	0.988200	0.963800	0.634200
C111	C11	0.013700	0.915200	0.588800
H51	H5	0.001900	0.939300	0.557900
C121	C12	0.086900	0.779800	0.537200
C131	C13	0.082900	0.809500	0.727500
C141	C14	0.937500	0.055700	0.634700
C151	C15	0.189900	0.420700	0.573100
C161	C16	0.245000	0.376000	0.607300
H61	H6	0.298700	0.390200	0.613600
C171	C17	0.220200	0.310000	0.631900
C181	C18	0.137900	0.291700	0.624000
H71	H7	0.119200	0.248900	0.640800
C191	C19	0.083400	0.337700	0.590700
C201	C20	0.108500	0.403300	0.566000
H81	H8	0.069300	0.434900	0.544700
C211	C21	0.214100	0.492800	0.545200
C221	C22	0.279200	0.261600	0.668900
C231	C23	0.995200	0.316100	0.581000
C241	C24	0.527400	0.316500	0.829700
C251	C25	0.571600	0.269900	0.867500
H91	H9	0.596200	0.212500	0.862900
C261	C26	0.578600	0.307800	0.910600
C271	C27	0.553100	0.392300	0.914900
H101	H10	0.558000	0.417900	0.944600
C281	C28	0.519500	0.440500	0.874100
C291	C29	0.504800	0.401700	0.833600
H111	H11	0.479000	0.433000	0.807800
C301	C30	0.511300	0.275600	0.785900
C311	C31	0.615600	0.260200	0.954700
C321	C32	0.489600	0.533800	0.879900
C331	C33	0.165300	0.231700	0.122400
C341	C34	0.175400	0.153100	0.098000
H121	H12	0.117700	0.137300	0.101400
C351	C35	0.278300	0.100300	0.068200
C361	C36	0.360900	0.121100	0.063900
H131	H13	0.426000	0.085200	0.045000
C371	C37	0.352500	0.197000	0.087500
C381	C38	0.256200	0.250400	0.116900
H141	H14	0.251900	0.299400	0.133200
C391	C39	0.065100	0.282800	0.153400
C401	C40	0.283300	0.021600	0.043300
C411	C41	0.827200	0.159100	0.116800
C421	C42	0.449200	0.217700	0.080300
C431	C43	0.707700	0.275700	0.141200
H151	H15	0.666000	0.326100	0.160000
C441	C44	0.761300	0.171000	0.086000
C451	C45	0.855700	0.049600	0.041000
H161	H16	0.868000	0.011500	0.013200
C461	C46	0.910100	0.085400	0.107600
N11	N1	0.926200	0.029600	0.067600
N21	N2	0.979600	0.066600	0.136800
H171	H17	0.031300	0.020800	0.129500
H181	H18	0.972100	0.100400	0.162500
N31	N3	0.793900	0.228400	0.152680
N41	N4	0.684600	0.246700	0.101500
N51	N5	0.769600	0.115400	0.047400
N61	N6	0.301300	0.607200	0.420600
N71	N7	0.262100	0.748600	0.395100
N81	N8	0.421800	0.739000	0.343100
N91	N9	0.600200	0.565200	0.322700
H191	H19	0.642300	0.515000	0.319100
H201	H20	0.621000	0.603000	0.306600
N101	N10	0.475700	0.520900	0.377400
O11	O1	0.059500	0.813900	0.498390
O21	O2	0.138200	0.701600	0.536110
O31	O3	0.131100	0.730300	0.727500
O41	O4	0.061300	0.849300	0.767600
O51	O5	0.890200	0.102800	0.675500
O61	O6	0.942700	0.084000	0.588460
O71	O7	0.273100	0.523600	0.559400
O81	O8	0.175500	0.514500	0.507650
O91	O9	0.944300	0.361300	0.551470
O101	O10	0.974400	0.253000	0.602080
O111	O11	0.249800	0.208300	0.693800
O121	O12	0.358300	0.276700	0.671650
O131	O13	0.490200	0.571500	0.836200
O141	O14	0.469000	0.567200	0.924000
O151	O15	0.434600	0.317700	0.767100
O161	O16	0.559300	0.201100	0.770180
O171	O17	0.622000	0.300000	0.993610
O181	O18	0.634600	0.184900	0.950300
O191	O19	0.059500	0.337700	0.187000
O201	O20	0.986400	0.270800	0.146500
O211	O21	0.213100	0.991400	0.057400
O221	O22	0.364200	0.985500	0.005900
O231	O23	0.533600	0.163700	0.068400
O241	O24	0.435600	0.295900	0.088400
Zn71	Zn7	0.889950	0.200230	0.579950
Zn81	Zn8	0.826940	0.380890	0.522180
Zn91	Zn9	0.531040	0.781570	0.291350
Zn101	Zn10	0.333800	0.883880	0.991170
Zn111	Zn11	0.144160	0.721130	0.801490
Zn121	Zn12	0.429750	0.686190	0.928650
C471	C47	0.673600	0.329000	0.604700
C481	C48	0.676200	0.212800	0.636800
H211	H21	0.701000	0.157500	0.643700
C491	C49	0.574500	0.338800	0.636700
C501	C50	0.497600	0.415600	0.646700
C511	C51	0.615900	0.464000	0.591000
H221	H22	0.627100	0.509000	0.573500
C521	C52	0.942500	0.170600	0.411800
C531	C53	0.915800	0.206000	0.367700
H231	H23	0.877400	0.262000	0.369600
C541	C54	0.945900	0.158400	0.321000
C551	C55	0.994400	0.072900	0.320200
H241	H24	0.015100	0.040300	0.288500
C561	C56	0.011800	0.036200	0.365800
C571	C57	0.986300	0.084800	0.411200
H251	H25	0.998100	0.060700	0.442100
C581	C58	0.913100	0.220200	0.462800
C591	C59	0.917100	0.190500	0.272500
C601	C60	0.062500	0.944300	0.365300
C611	C61	0.810100	0.579300	0.426900
C621	C62	0.755000	0.624000	0.392700
H261	H26	0.701300	0.609800	0.386400
C631	C63	0.779800	0.690000	0.368100
C641	C64	0.862100	0.708300	0.376000
H271	H27	0.880800	0.751100	0.359200
C651	C65	0.916600	0.662300	0.409300
C661	C66	0.891500	0.596700	0.434000
H281	H28	0.930700	0.565100	0.455300
C671	C67	0.785900	0.507200	0.454800
C681	C68	0.720800	0.738400	0.331100
C691	C69	0.004800	0.683900	0.419000
C701	C70	0.472600	0.683500	0.170300
C711	C71	0.428400	0.730100	0.132500
H291	H29	0.403800	0.787500	0.137100
C721	C72	0.421400	0.692200	0.089400
C731	C73	0.446900	0.607700	0.085100
H301	H30	0.442000	0.582100	0.055400
C741	C74	0.480500	0.559500	0.125900
C751	C75	0.495200	0.598300	0.166400
H311	H31	0.521000	0.567000	0.192200
C761	C76	0.488700	0.724400	0.214100
C771	C77	0.384400	0.739800	0.045300
C781	C78	0.510400	0.466200	0.120100
C791	C79	0.834700	0.768300	0.877600
C801	C80	0.824600	0.846900	0.902000
H321	H32	0.882300	0.862700	0.898600
C811	C81	0.721700	0.899700	0.931800
C821	C82	0.639100	0.878900	0.936100
H331	H33	0.574000	0.914800	0.955000
C831	C83	0.647500	0.803000	0.912500
C841	C84	0.743800	0.749600	0.883100
H341	H34	0.748100	0.700600	0.866800
C851	C85	0.934900	0.717200	0.846600
C861	C86	0.716700	0.978400	0.956700
C871	C87	0.172800	0.840900	0.883200
C881	C88	0.550800	0.782300	0.919700
C891	C89	0.292300	0.724300	0.858800
H351	H35	0.334000	0.673900	0.840000
C901	C90	0.238700	0.829000	0.914000
C911	C91	0.144300	0.950400	0.959000
H361	H36	0.132000	0.988500	0.986800
C921	C92	0.089900	0.914600	0.892400
N111	N11	0.073800	0.970400	0.932400
N121	N12	0.020400	0.933400	0.863200
H371	H37	0.968700	0.979200	0.870500
H381	H38	0.027900	0.899600	0.837500
N131	N13	0.206100	0.771600	0.847320
N141	N14	0.315400	0.753300	0.898500
N151	N15	0.230400	0.884600	0.952600
N161	N16	0.698700	0.392800	0.579400
N171	N17	0.737900	0.251400	0.604900
N181	N18	0.578200	0.261000	0.656900
N191	N19	0.399800	0.434800	0.677300
H391	H39	0.357700	0.485000	0.680900
H401	H40	0.379000	0.397000	0.693400
N201	N20	0.524300	0.479100	0.622600
O251	O25	0.940500	0.186100	0.501610
O261	O26	0.861800	0.298400	0.463890
O271	O27	0.868900	0.269700	0.272500
O281	O28	0.938700	0.150700	0.232400
O291	O29	0.109800	0.897200	0.324500
O301	O30	0.057300	0.916000	0.411540
O311	O31	0.726900	0.476400	0.440600
O321	O32	0.824500	0.485500	0.492350
O331	O33	0.055700	0.638700	0.448530
O341	O34	0.025600	0.747000	0.397920
O351	O35	0.750200	0.791700	0.306200
O361	O36	0.641700	0.723300	0.328350
O371	O37	0.509800	0.428500	0.163800
O381	O38	0.531000	0.432800	0.076000
O391	O39	0.565400	0.682300	0.232900
O401	O40	0.440700	0.798900	0.229820
O411	O41	0.378000	0.700000	0.006390
O421	O42	0.365400	0.815100	0.049700
O431	O43	0.940500	0.662300	0.813000
O441	O44	0.013600	0.729200	0.853500
O451	O45	0.786900	0.008600	0.942600
O461	O46	0.635800	0.014500	0.994100
O471	O47	0.466400	0.836300	0.931600
O481	O48	0.564400	0.704100	0.911600
