data_ZURLAB_clean_PM
_symmetry_space_group_name_H-M	'P1'
_cell_length_a	10.131800
_cell_length_b	16.175200
_cell_length_c	23.101500
_cell_angle_alpha	90.000000
_cell_angle_beta	93.411000
_cell_angle_gamma	90.000000
_symmetry_Int_Tables_number 1

loop_
_symmetry_equiv_pos_as_xyz
'x,y,z'

loop_
_atom_site_label
_atom_site_type_symbol
_atom_site_fract_x
_atom_site_fract_y
_atom_site_fract_z
Cd11	Cd1	0.689190	0.079020	0.739860
Cd21	Cd2	0.332780	0.995230	0.770870
N11	N1	0.370300	0.858000	0.785060
N21	N2	0.115300	0.019300	0.773970
C11	C1	0.993800	0.972200	0.683000
O11	O1	0.699400	0.857000	0.734710
N31	N3	0.350100	0.720700	0.773650
N41	N4	0.673500	0.056900	0.639490
C21	C2	0.079500	0.057200	0.823900
N51	N5	0.670000	0.012100	0.332600
O21	O2	0.297500	0.049400	0.864700
C31	C3	0.002600	0.011300	0.740600
O31	O3	0.534400	0.607700	0.739820
N61	N6	0.896800	0.043200	0.766110
C41	C4	0.291500	0.791000	0.789600
C51	C5	0.485000	0.828200	0.765300
C61	C6	0.980100	0.887900	0.676900
H11	H1	0.976400	0.855200	0.709900
O41	O4	0.737000	0.118300	0.842170
C71	C7	0.593500	0.885500	0.753400
C81	C8	0.181700	0.072100	0.870800
C91	C9	0.672700	0.027800	0.454100
C101	C10	0.672400	0.037200	0.517800
C111	C11	0.666700	0.982000	0.614500
H21	H2	0.663000	0.935800	0.638300
C121	C12	0.999800	0.020100	0.633500
H31	H3	0.008600	0.077100	0.637000
C131	C13	0.978500	0.899500	0.573900
C141	C14	0.667400	0.946600	0.367300
H41	H4	0.665300	0.894500	0.350300
C151	C15	0.664800	0.969800	0.555500
H51	H5	0.658500	0.916500	0.540500
C161	C16	0.159800	0.794300	0.813200
C171	C17	0.059600	0.739100	0.793500
H61	H6	0.077300	0.699500	0.765800
C181	C18	0.935800	0.743300	0.814600
H71	H7	0.870600	0.706100	0.801600
C191	C19	0.993000	0.984500	0.579200
H81	H8	0.998000	0.017200	0.546300
C201	C20	0.971500	0.850500	0.622700
H91	H9	0.961300	0.793600	0.619300
C211	C21	0.667500	0.951300	0.426800
H101	H10	0.664100	0.903200	0.448700
C221	C22	0.129100	0.852000	0.853900
H111	H11	0.194000	0.888900	0.867600
C231	C23	0.677400	0.086500	0.358600
H121	H12	0.682400	0.133400	0.335500
C241	C24	0.908400	0.801700	0.854600
C251	C25	0.677800	0.096500	0.417500
H131	H13	0.681600	0.149400	0.433300
C261	C26	0.680000	0.121800	0.603700
H141	H14	0.685500	0.174300	0.620000
C271	C27	0.004400	0.856700	0.875100
H151	H15	0.985600	0.896200	0.902700
O51	O5	0.780300	0.800500	0.871900
C281	C28	0.679200	0.115100	0.544700
H161	H16	0.683100	0.162500	0.522200
O61	O6	0.681700	0.705800	0.725540
C291	C29	0.472900	0.743600	0.758000
C301	C30	0.569200	0.682700	0.739300
C311	C31	0.946000	0.072000	0.818500
O71	O7	0.145200	0.108400	0.916440
C321	C32	0.963900	0.786200	0.507700
H171	H17	0.046700	0.761000	0.519900
H181	H18	0.945700	0.776600	0.467000
H191	H19	0.894600	0.762500	0.528900
O81	O8	0.903800	0.134000	0.908180
O91	O9	0.970600	0.871300	0.518190
C331	C33	0.854500	0.110700	0.858100
C341	C34	0.737600	0.866300	0.905300
H201	H20	0.789700	0.868300	0.941400
H211	H21	0.646300	0.858600	0.912800
H221	H22	0.747700	0.917200	0.884700
O101	O10	0.574800	0.960400	0.761620
H231	H23	0.987000	0.132000	0.905000
Cd31	Cd3	0.310810	0.579020	0.760140
Cd41	Cd4	0.667220	0.495230	0.729130
N71	N7	0.629700	0.358000	0.714940
N81	N8	0.884700	0.519300	0.726030
C351	C35	0.006200	0.472200	0.817000
O111	O11	0.300600	0.357000	0.765290
N91	N9	0.649900	0.220700	0.726350
N101	N10	0.326500	0.556900	0.860510
C361	C36	0.920500	0.557200	0.676100
N111	N11	0.330000	0.512100	0.167400
O121	O12	0.702500	0.549400	0.635300
C371	C37	0.997400	0.511300	0.759400
O131	O13	0.465600	0.107700	0.760180
N121	N12	0.103200	0.543200	0.733890
C381	C38	0.708500	0.291000	0.710400
C391	C39	0.515000	0.328200	0.734700
C401	C40	0.019900	0.387900	0.823100
H241	H24	0.023600	0.355200	0.790100
O141	O14	0.263000	0.618300	0.657830
C411	C41	0.406500	0.385500	0.746600
C421	C42	0.818300	0.572100	0.629200
C431	C43	0.327300	0.527800	0.045900
C441	C44	0.327600	0.537200	0.982200
C451	C45	0.333300	0.482000	0.885500
H251	H25	0.337000	0.435800	0.861700
C461	C46	0.000200	0.520100	0.866500
H261	H26	0.991400	0.577100	0.863000
C471	C47	0.021500	0.399500	0.926100
C481	C48	0.332600	0.446600	0.132700
H271	H27	0.334700	0.394500	0.149700
C491	C49	0.335200	0.469800	0.944500
H281	H28	0.341500	0.416500	0.959500
C501	C50	0.840200	0.294300	0.686800
C511	C51	0.940400	0.239100	0.706500
H291	H29	0.922700	0.199500	0.734200
C521	C52	0.064200	0.243300	0.685400
H301	H30	0.129400	0.206100	0.698400
C531	C53	0.007000	0.484500	0.920800
H311	H31	0.002000	0.517200	0.953700
C541	C54	0.028500	0.350500	0.877300
H321	H32	0.038700	0.293600	0.880700
C551	C55	0.332500	0.451300	0.073200
H331	H33	0.335900	0.403200	0.051300
C561	C56	0.870900	0.352000	0.646100
H341	H34	0.806000	0.388900	0.632400
C571	C57	0.322600	0.586500	0.141400
H351	H35	0.317600	0.633400	0.164500
C581	C58	0.091600	0.301700	0.645400
C591	C59	0.322200	0.596500	0.082500
H361	H36	0.318400	0.649400	0.066700
C601	C60	0.320000	0.621800	0.896300
H371	H37	0.314500	0.674300	0.880000
C611	C61	0.995600	0.356700	0.624900
H381	H38	0.014400	0.396200	0.597300
O151	O15	0.219700	0.300500	0.628100
C621	C62	0.320800	0.615100	0.955300
H391	H39	0.316900	0.662500	0.977800
O161	O16	0.318300	0.205800	0.774460
C631	C63	0.527100	0.243600	0.742000
C641	C64	0.430800	0.182700	0.760700
C651	C65	0.054000	0.572000	0.681500
O171	O17	0.854800	0.608400	0.583560
C661	C66	0.036100	0.286200	0.992300
H401	H40	0.953300	0.261000	0.980100
H411	H41	0.054300	0.276600	0.033000
H421	H42	0.105400	0.262500	0.971100
O181	O18	0.096200	0.634000	0.591820
O191	O19	0.029400	0.371300	0.981810
C671	C67	0.145500	0.610700	0.641900
C681	C68	0.262400	0.366300	0.594700
H431	H43	0.210300	0.368300	0.558600
H441	H44	0.353700	0.358600	0.587200
H451	H45	0.252300	0.417200	0.615300
O201	O20	0.425200	0.460400	0.738380
H461	H46	0.013000	0.632000	0.595000
Cd51	Cd5	0.310810	0.920980	0.260140
Cd61	Cd6	0.667220	0.004770	0.229130
N131	N13	0.629700	0.142000	0.214940
N141	N14	0.884700	0.980700	0.226030
C691	C69	0.006200	0.027800	0.317000
O211	O21	0.300600	0.143000	0.265290
N151	N15	0.649900	0.279300	0.226350
N161	N16	0.326500	0.943100	0.360510
C701	C70	0.920500	0.942800	0.176100
N171	N17	0.330000	0.987900	0.667400
O221	O22	0.702500	0.950600	0.135300
C711	C71	0.997400	0.988700	0.259400
O231	O23	0.465600	0.392300	0.260180
N181	N18	0.103200	0.956800	0.233890
C721	C72	0.708500	0.209000	0.210400
C731	C73	0.515000	0.171800	0.234700
C741	C74	0.019900	0.112100	0.323100
H471	H47	0.023600	0.144800	0.290100
O241	O24	0.263000	0.881700	0.157830
C751	C75	0.406500	0.114500	0.246600
C761	C76	0.818300	0.927900	0.129200
C771	C77	0.327300	0.972200	0.545900
C781	C78	0.327600	0.962800	0.482200
C791	C79	0.333300	0.018000	0.385500
H481	H48	0.337000	0.064200	0.361700
C801	C80	0.000200	0.979900	0.366500
H491	H49	0.991400	0.922900	0.363000
C811	C81	0.021500	0.100500	0.426100
C821	C82	0.332600	0.053400	0.632700
H501	H50	0.334700	0.105500	0.649700
C831	C83	0.335200	0.030200	0.444500
H511	H51	0.341500	0.083500	0.459500
C841	C84	0.840200	0.205700	0.186800
C851	C85	0.940400	0.260900	0.206500
H521	H52	0.922700	0.300500	0.234200
C861	C86	0.064200	0.256700	0.185400
H531	H53	0.129400	0.293900	0.198400
C871	C87	0.007000	0.015500	0.420800
H541	H54	0.002000	0.982800	0.453700
C881	C88	0.028500	0.149500	0.377300
H551	H55	0.038700	0.206400	0.380700
C891	C89	0.332500	0.048700	0.573200
H561	H56	0.335900	0.096800	0.551300
C901	C90	0.870900	0.148000	0.146100
H571	H57	0.806000	0.111100	0.132400
C911	C91	0.322600	0.913500	0.641400
H581	H58	0.317600	0.866600	0.664500
C921	C92	0.091600	0.198300	0.145400
C931	C93	0.322200	0.903500	0.582500
H591	H59	0.318400	0.850600	0.566700
C941	C94	0.320000	0.878200	0.396300
H601	H60	0.314500	0.825700	0.380000
C951	C95	0.995600	0.143300	0.124900
H611	H61	0.014400	0.103800	0.097300
O251	O25	0.219700	0.199500	0.128100
C961	C96	0.320800	0.884900	0.455300
H621	H62	0.316900	0.837500	0.477800
O261	O26	0.318300	0.294200	0.274460
C971	C97	0.527100	0.256400	0.242000
C981	C98	0.430800	0.317300	0.260700
C991	C99	0.054000	0.928000	0.181500
O271	O27	0.854800	0.891600	0.083560
C1001	C100	0.036100	0.213800	0.492300
H631	H63	0.953300	0.239000	0.480100
H641	H64	0.054300	0.223400	0.533000
H651	H65	0.105400	0.237500	0.471100
O281	O28	0.096200	0.866000	0.091820
O291	O29	0.029400	0.128700	0.481810
C1011	C101	0.145500	0.889300	0.141900
C1021	C102	0.262400	0.133700	0.094700
H661	H66	0.210300	0.131700	0.058600
H671	H67	0.353700	0.141400	0.087200
H681	H68	0.252300	0.082800	0.115300
O301	O30	0.425200	0.039600	0.238380
H691	H69	0.013000	0.868000	0.095000
Cd71	Cd7	0.689190	0.420980	0.239860
Cd81	Cd8	0.332780	0.504770	0.270870
N191	N19	0.370300	0.642000	0.285060
N201	N20	0.115300	0.480700	0.273970
C1031	C103	0.993800	0.527800	0.183000
O311	O31	0.699400	0.643000	0.234710
N211	N21	0.350100	0.779300	0.273650
N221	N22	0.673500	0.443100	0.139490
C1041	C104	0.079500	0.442800	0.323900
N231	N23	0.670000	0.487900	0.832600
O321	O32	0.297500	0.450600	0.364700
C1051	C105	0.002600	0.488700	0.240600
O331	O33	0.534400	0.892300	0.239820
N241	N24	0.896800	0.456800	0.266110
C1061	C106	0.291500	0.709000	0.289600
C1071	C107	0.485000	0.671800	0.265300
C1081	C108	0.980100	0.612100	0.176900
H701	H70	0.976400	0.644800	0.209900
O341	O34	0.737000	0.381700	0.342170
C1091	C109	0.593500	0.614500	0.253400
C1101	C110	0.181700	0.427900	0.370800
C1111	C111	0.672700	0.472200	0.954100
C1121	C112	0.672400	0.462800	0.017800
C1131	C113	0.666700	0.518000	0.114500
H711	H71	0.663000	0.564200	0.138300
C1141	C114	0.999800	0.479900	0.133500
H721	H72	0.008600	0.422900	0.137000
C1151	C115	0.978500	0.600500	0.073900
C1161	C116	0.667400	0.553400	0.867300
H731	H73	0.665300	0.605500	0.850300
C1171	C117	0.664800	0.530200	0.055500
H741	H74	0.658500	0.583500	0.040500
C1181	C118	0.159800	0.705700	0.313200
C1191	C119	0.059600	0.760900	0.293500
H751	H75	0.077300	0.800500	0.265800
C1201	C120	0.935800	0.756700	0.314600
H761	H76	0.870600	0.793900	0.301600
C1211	C121	0.993000	0.515500	0.079200
H771	H77	0.998000	0.482800	0.046300
C1221	C122	0.971500	0.649500	0.122700
H781	H78	0.961300	0.706400	0.119300
C1231	C123	0.667500	0.548700	0.926800
H791	H79	0.664100	0.596800	0.948700
C1241	C124	0.129100	0.648000	0.353900
H801	H80	0.194000	0.611100	0.367600
C1251	C125	0.677400	0.413500	0.858600
H811	H81	0.682400	0.366600	0.835500
C1261	C126	0.908400	0.698300	0.354600
C1271	C127	0.677800	0.403500	0.917500
H821	H82	0.681600	0.350600	0.933300
C1281	C128	0.680000	0.378200	0.103700
H831	H83	0.685500	0.325700	0.120000
C1291	C129	0.004400	0.643300	0.375100
H841	H84	0.985600	0.603800	0.402700
O351	O35	0.780300	0.699500	0.371900
C1301	C130	0.679200	0.384900	0.044700
H851	H85	0.683100	0.337500	0.022200
O361	O36	0.681700	0.794200	0.225540
C1311	C131	0.472900	0.756400	0.258000
C1321	C132	0.569200	0.817300	0.239300
C1331	C133	0.946000	0.428000	0.318500
O371	O37	0.145200	0.391600	0.416440
C1341	C134	0.963900	0.713800	0.007700
H861	H86	0.046700	0.739000	0.019900
H871	H87	0.945700	0.723400	0.967000
H881	H88	0.894600	0.737500	0.028900
O381	O38	0.903800	0.366000	0.408180
O391	O39	0.970600	0.628700	0.018190
C1351	C135	0.854500	0.389300	0.358100
C1361	C136	0.737600	0.633700	0.405300
H891	H89	0.789700	0.631700	0.441400
H901	H90	0.646300	0.641400	0.412800
H911	H91	0.747700	0.582800	0.384700
O401	O40	0.574800	0.539600	0.261620
H921	H92	0.987000	0.368000	0.405000
