data_ZUTBIB_clean_PM
_symmetry_space_group_name_H-M	'P1'
_cell_length_a	9.312800
_cell_length_b	9.322700
_cell_length_c	9.349700
_cell_angle_alpha	103.170000
_cell_angle_beta	93.600000
_cell_angle_gamma	90.140000
_symmetry_Int_Tables_number 1

loop_
_symmetry_equiv_pos_as_xyz
'x,y,z'

loop_
_atom_site_label
_atom_site_type_symbol
_atom_site_fract_x
_atom_site_fract_y
_atom_site_fract_z
Ga11	Ga1	0.434640	0.136980	0.589990
Ga21	Ga2	0.841810	0.375140	0.576610
Ga31	Ga3	0.613020	0.396250	0.164930
P11	P1	0.355460	0.833020	0.648340
P21	P2	0.180780	0.375690	0.593850
P31	P3	0.622550	0.376970	0.827980
O11	O1	0.387700	0.784600	0.794700
O21	O2	0.463300	0.764700	0.536900
O31	O3	0.203700	0.769800	0.586200
O41	O4	0.349600	0.999600	0.688400
O51	O5	0.259500	0.233100	0.563800
O61	O6	0.175200	0.440900	0.456400
O71	O7	0.027300	0.343400	0.628900
O81	O8	0.245900	0.488200	0.727000
O91	O9	0.503400	0.265500	0.770700
O101	O10	0.754500	0.353600	0.737400
O111	O11	0.567000	0.532600	0.835500
O121	O12	0.678700	0.364100	0.981400
F11	F1	0.390000	0.983000	0.409300
Ga41	Ga4	0.565360	0.863020	0.410010
Ga51	Ga5	0.158190	0.624860	0.423390
Ga61	Ga6	0.386980	0.603750	0.835070
P41	P4	0.644540	0.166980	0.351660
P51	P5	0.819220	0.624310	0.406150
P61	P6	0.377450	0.623030	0.172020
O131	O13	0.612300	0.215400	0.205300
O141	O14	0.536700	0.235300	0.463100
O151	O15	0.796300	0.230200	0.413800
O161	O16	0.650400	0.000400	0.311600
O171	O17	0.740500	0.766900	0.436200
O181	O18	0.824800	0.559100	0.543600
O191	O19	0.972700	0.656600	0.371100
O201	O20	0.754100	0.511800	0.273000
O211	O21	0.496600	0.734500	0.229300
O221	O22	0.245500	0.646400	0.262600
O231	O23	0.433000	0.467400	0.164500
O241	O24	0.321300	0.635900	0.018600
F21	F2	0.610000	0.017000	0.590700
