data_ZUTBUN_clean_PM
_symmetry_space_group_name_H-M	'P1'
_cell_length_a	13.987700
_cell_length_b	11.919800
_cell_length_c	23.045400
_cell_angle_alpha	90.000000
_cell_angle_beta	104.269000
_cell_angle_gamma	90.000000
_symmetry_Int_Tables_number 1

loop_
_symmetry_equiv_pos_as_xyz
'x,y,z'

loop_
_atom_site_label
_atom_site_type_symbol
_atom_site_fract_x
_atom_site_fract_y
_atom_site_fract_z
Ga11	Ga1	0.872150	0.541760	0.553260
Ga21	Ga2	0.840600	0.675200	0.411290
Ga31	Ga3	0.997550	0.131630	0.438250
P11	P1	0.047930	0.656930	0.506130
P21	P2	0.960890	0.557840	0.330690
P31	P3	0.850880	0.929690	0.438140
P41	P4	0.115940	0.229480	0.358880
O11	O1	0.759000	0.000600	0.432800
O21	O2	0.062400	0.541200	0.372290
O31	O3	0.137700	0.601500	0.491490
O41	O4	0.133600	0.319400	0.405010
O51	O5	0.001400	0.582900	0.545090
O61	O6	0.806500	0.617900	0.478290
O71	O7	0.976400	0.697800	0.449180
O81	O8	0.203800	0.151300	0.365250
O91	O9	0.872900	0.568500	0.359540
O101	O10	0.931500	0.453800	0.289530
O111	O11	0.964400	0.663500	0.292740
O121	O12	0.831200	0.830100	0.395730
O131	O13	0.933000	0.998500	0.421890
O141	O14	0.886300	0.891100	0.504550
O151	O15	0.088100	0.766200	0.543190
O161	O16	0.025500	0.158400	0.365470
O171	O17	0.092600	0.274700	0.294910
Ga41	Ga4	0.372150	0.041760	0.553260
Ga51	Ga5	0.340600	0.175200	0.411290
Ga61	Ga6	0.497550	0.631630	0.438250
P51	P5	0.547930	0.156930	0.506130
P61	P6	0.460890	0.057840	0.330690
P71	P7	0.350880	0.429690	0.438140
P81	P8	0.615940	0.729480	0.358880
O181	O18	0.259000	0.500600	0.432800
O191	O19	0.562400	0.041200	0.372290
O201	O20	0.637700	0.101500	0.491490
O211	O21	0.633600	0.819400	0.405010
O221	O22	0.501400	0.082900	0.545090
O231	O23	0.306500	0.117900	0.478290
O241	O24	0.476400	0.197800	0.449180
O251	O25	0.703800	0.651300	0.365250
O261	O26	0.372900	0.068500	0.359540
O271	O27	0.431500	0.953800	0.289530
O281	O28	0.464400	0.163500	0.292740
O291	O29	0.331200	0.330100	0.395730
O301	O30	0.433000	0.498500	0.421890
O311	O31	0.386300	0.391100	0.504550
O321	O32	0.588100	0.266200	0.543190
O331	O33	0.525500	0.658400	0.365470
O341	O34	0.592600	0.774700	0.294910
Ga71	Ga7	0.127850	0.541760	0.946740
Ga81	Ga8	0.159400	0.675200	0.088710
Ga91	Ga9	0.002450	0.131630	0.061750
P91	P9	0.952070	0.656930	0.993870
P101	P10	0.039110	0.557840	0.169310
P111	P11	0.149120	0.929690	0.061860
P121	P12	0.884060	0.229480	0.141120
O351	O35	0.241000	0.000600	0.067200
O361	O36	0.937600	0.541200	0.127710
O371	O37	0.862300	0.601500	0.008510
O381	O38	0.866400	0.319400	0.094990
O391	O39	0.998600	0.582900	0.954910
O401	O40	0.193500	0.617900	0.021710
O411	O41	0.023600	0.697800	0.050820
O421	O42	0.796200	0.151300	0.134750
O431	O43	0.127100	0.568500	0.140460
O441	O44	0.068500	0.453800	0.210470
O451	O45	0.035600	0.663500	0.207260
O461	O46	0.168800	0.830100	0.104270
O471	O47	0.067000	0.998500	0.078110
O481	O48	0.113700	0.891100	0.995450
O491	O49	0.911900	0.766200	0.956810
O501	O50	0.974500	0.158400	0.134530
O511	O51	0.907400	0.274700	0.205090
Ga101	Ga10	0.627850	0.041760	0.946740
Ga111	Ga11	0.659400	0.175200	0.088710
Ga121	Ga12	0.502450	0.631630	0.061750
P131	P13	0.452070	0.156930	0.993870
P141	P14	0.539110	0.057840	0.169310
P151	P15	0.649120	0.429690	0.061860
P161	P16	0.384060	0.729480	0.141120
O521	O52	0.741000	0.500600	0.067200
O531	O53	0.437600	0.041200	0.127710
O541	O54	0.362300	0.101500	0.008510
O551	O55	0.366400	0.819400	0.094990
O561	O56	0.498600	0.082900	0.954910
O571	O57	0.693500	0.117900	0.021710
O581	O58	0.523600	0.197800	0.050820
O591	O59	0.296200	0.651300	0.134750
O601	O60	0.627100	0.068500	0.140460
O611	O61	0.568500	0.953800	0.210470
O621	O62	0.535600	0.163500	0.207260
O631	O63	0.668800	0.330100	0.104270
O641	O64	0.567000	0.498500	0.078110
O651	O65	0.613700	0.391100	0.995450
O661	O66	0.411900	0.266200	0.956810
O671	O67	0.474500	0.658400	0.134530
O681	O68	0.407400	0.774700	0.205090
Ga131	Ga13	0.127850	0.458240	0.446740
Ga141	Ga14	0.159400	0.324800	0.588710
Ga151	Ga15	0.002450	0.868370	0.561750
P171	P17	0.952070	0.343070	0.493870
P181	P18	0.039110	0.442160	0.669310
P191	P19	0.149120	0.070310	0.561860
P201	P20	0.884060	0.770520	0.641120
O691	O69	0.241000	0.999400	0.567200
O701	O70	0.937600	0.458800	0.627710
O711	O71	0.862300	0.398500	0.508510
O721	O72	0.866400	0.680600	0.594990
O731	O73	0.998600	0.417100	0.454910
O741	O74	0.193500	0.382100	0.521710
O751	O75	0.023600	0.302200	0.550820
O761	O76	0.796200	0.848700	0.634750
O771	O77	0.127100	0.431500	0.640460
O781	O78	0.068500	0.546200	0.710470
O791	O79	0.035600	0.336500	0.707260
O801	O80	0.168800	0.169900	0.604270
O811	O81	0.067000	0.001500	0.578110
O821	O82	0.113700	0.108900	0.495450
O831	O83	0.911900	0.233800	0.456810
O841	O84	0.974500	0.841600	0.634530
O851	O85	0.907400	0.725300	0.705090
Ga161	Ga16	0.627850	0.958240	0.446740
Ga171	Ga17	0.659400	0.824800	0.588710
Ga181	Ga18	0.502450	0.368370	0.561750
P211	P21	0.452070	0.843070	0.493870
P221	P22	0.539110	0.942160	0.669310
P231	P23	0.649120	0.570310	0.561860
P241	P24	0.384060	0.270520	0.641120
O861	O86	0.741000	0.499400	0.567200
O871	O87	0.437600	0.958800	0.627710
O881	O88	0.362300	0.898500	0.508510
O891	O89	0.366400	0.180600	0.594990
O901	O90	0.498600	0.917100	0.454910
O911	O91	0.693500	0.882100	0.521710
O921	O92	0.523600	0.802200	0.550820
O931	O93	0.296200	0.348700	0.634750
O941	O94	0.627100	0.931500	0.640460
O951	O95	0.568500	0.046200	0.710470
O961	O96	0.535600	0.836500	0.707260
O971	O97	0.668800	0.669900	0.604270
O981	O98	0.567000	0.501500	0.578110
O991	O99	0.613700	0.608900	0.495450
O1001	O100	0.411900	0.733800	0.456810
O1011	O101	0.474500	0.341600	0.634530
O1021	O102	0.407400	0.225300	0.705090
Ga191	Ga19	0.872150	0.458240	0.053260
Ga201	Ga20	0.840600	0.324800	0.911290
Ga211	Ga21	0.997550	0.868370	0.938250
P251	P25	0.047930	0.343070	0.006130
P261	P26	0.960890	0.442160	0.830690
P271	P27	0.850880	0.070310	0.938140
P281	P28	0.115940	0.770520	0.858880
O1031	O103	0.759000	0.999400	0.932800
O1041	O104	0.062400	0.458800	0.872290
O1051	O105	0.137700	0.398500	0.991490
O1061	O106	0.133600	0.680600	0.905010
O1071	O107	0.001400	0.417100	0.045090
O1081	O108	0.806500	0.382100	0.978290
O1091	O109	0.976400	0.302200	0.949180
O1101	O110	0.203800	0.848700	0.865250
O1111	O111	0.872900	0.431500	0.859540
O1121	O112	0.931500	0.546200	0.789530
O1131	O113	0.964400	0.336500	0.792740
O1141	O114	0.831200	0.169900	0.895730
O1151	O115	0.933000	0.001500	0.921890
O1161	O116	0.886300	0.108900	0.004550
O1171	O117	0.088100	0.233800	0.043190
O1181	O118	0.025500	0.841600	0.865470
O1191	O119	0.092600	0.725300	0.794910
Ga221	Ga22	0.372150	0.958240	0.053260
Ga231	Ga23	0.340600	0.824800	0.911290
Ga241	Ga24	0.497550	0.368370	0.938250
P291	P29	0.547930	0.843070	0.006130
P301	P30	0.460890	0.942160	0.830690
P311	P31	0.350880	0.570310	0.938140
P321	P32	0.615940	0.270520	0.858880
O1201	O120	0.259000	0.499400	0.932800
O1211	O121	0.562400	0.958800	0.872290
O1221	O122	0.637700	0.898500	0.991490
O1231	O123	0.633600	0.180600	0.905010
O1241	O124	0.501400	0.917100	0.045090
O1251	O125	0.306500	0.882100	0.978290
O1261	O126	0.476400	0.802200	0.949180
O1271	O127	0.703800	0.348700	0.865250
O1281	O128	0.372900	0.931500	0.859540
O1291	O129	0.431500	0.046200	0.789530
O1301	O130	0.464400	0.836500	0.792740
O1311	O131	0.331200	0.669900	0.895730
O1321	O132	0.433000	0.501500	0.921890
O1331	O133	0.386300	0.608900	0.004550
O1341	O134	0.588100	0.733800	0.043190
O1351	O135	0.525500	0.341600	0.865470
O1361	O136	0.592600	0.225300	0.794910
Ga251	Ga25	0.000000	0.366040	0.250000
Ga261	Ga26	0.500000	0.866040	0.250000
Ga271	Ga27	0.000000	0.633960	0.750000
Ga281	Ga28	0.500000	0.133960	0.750000
