data_ZUXPOZ_clean_PM
_symmetry_space_group_name_H-M	'P1'
_cell_length_a	9.048000
_cell_length_b	9.465000
_cell_length_c	15.584000
_cell_angle_alpha	90.000000
_cell_angle_beta	90.790000
_cell_angle_gamma	90.000000
_symmetry_Int_Tables_number 1

loop_
_symmetry_equiv_pos_as_xyz
'x,y,z'

loop_
_atom_site_label
_atom_site_type_symbol
_atom_site_fract_x
_atom_site_fract_y
_atom_site_fract_z
U11	U1	0.243130	0.505670	0.675340
O11	O1	0.182000	0.618200	0.804900
O21	O2	0.144100	0.804700	0.886100
O31	O3	0.376100	0.393800	0.786300
O41	O4	0.398500	0.203100	0.866400
C11	C1	0.132900	0.673800	0.871800
C21	C2	0.065300	0.586100	0.936400
C31	C3	0.049900	0.438100	0.924600
H11	H1	0.082800	0.396700	0.874200
C41	C4	0.987000	0.355200	0.986600
H21	H2	0.978800	0.258300	0.977600
C51	C5	0.511400	0.438900	0.081100
H31	H3	0.518800	0.398200	0.135300
C61	C6	0.467200	0.355000	0.009700
H41	H4	0.446000	0.259600	0.016700
C71	C7	0.456100	0.417400	0.929300
C81	C8	0.404800	0.333000	0.856700
U21	U2	0.256870	0.005670	0.824660
O51	O5	0.318000	0.118200	0.695100
O61	O6	0.355900	0.304700	0.613900
O71	O7	0.123900	0.893800	0.713700
O81	O8	0.101500	0.703100	0.633600
C91	C9	0.367100	0.173800	0.628200
C101	C10	0.434700	0.086100	0.563600
C111	C11	0.450100	0.938100	0.575400
H51	H5	0.417200	0.896700	0.625800
C121	C12	0.513000	0.855200	0.513400
H61	H6	0.521200	0.758300	0.522400
C131	C13	0.988600	0.938900	0.418900
H71	H7	0.981200	0.898200	0.364700
C141	C14	0.032800	0.855000	0.490300
H81	H8	0.054000	0.759600	0.483300
C151	C15	0.043900	0.917400	0.570700
C161	C16	0.095200	0.833000	0.643300
U31	U3	0.756870	0.494330	0.324660
O91	O9	0.818000	0.381800	0.195100
O101	O10	0.855900	0.195300	0.113900
O111	O11	0.623900	0.606200	0.213700
O121	O12	0.601500	0.796900	0.133600
C171	C17	0.867100	0.326200	0.128200
C181	C18	0.934700	0.413900	0.063600
C191	C19	0.950100	0.561900	0.075400
H91	H9	0.917200	0.603300	0.125800
C201	C20	0.013000	0.644800	0.013400
H101	H10	0.021200	0.741700	0.022400
C211	C21	0.488600	0.561100	0.918900
H111	H11	0.481200	0.601800	0.864700
C221	C22	0.532800	0.645000	0.990300
H121	H12	0.554000	0.740400	0.983300
C231	C23	0.543900	0.582600	0.070700
C241	C24	0.595200	0.667000	0.143300
U41	U4	0.743130	0.994330	0.175340
O131	O13	0.682000	0.881800	0.304900
O141	O14	0.644100	0.695300	0.386100
O151	O15	0.876100	0.106200	0.286300
O161	O16	0.898500	0.296900	0.366400
C251	C25	0.632900	0.826200	0.371800
C261	C26	0.565300	0.913900	0.436400
C271	C27	0.549900	0.061900	0.424600
H131	H13	0.582800	0.103300	0.374200
C281	C28	0.487000	0.144800	0.486600
H141	H14	0.478800	0.241700	0.477600
C291	C29	0.011400	0.061100	0.581100
H151	H15	0.018800	0.101800	0.635300
C301	C30	0.967200	0.145000	0.509700
H161	H16	0.946000	0.240400	0.516700
C311	C31	0.956100	0.082600	0.429300
C321	C32	0.904800	0.167000	0.356700
