data_ZUZZEB_clean_PM
_symmetry_space_group_name_H-M	'P1'
_cell_length_a	29.311000
_cell_length_b	29.311000
_cell_length_c	29.311000
_cell_angle_alpha	90.000000
_cell_angle_beta	90.000000
_cell_angle_gamma	90.000000
_symmetry_Int_Tables_number 1

loop_
_symmetry_equiv_pos_as_xyz
'x,y,z'

loop_
_atom_site_label
_atom_site_type_symbol
_atom_site_fract_x
_atom_site_fract_y
_atom_site_fract_z
Yb11	Yb1	0.144330	0.245370	0.182930
N11	N1	0.107600	0.249800	0.813200
O11	O1	0.819400	0.250100	0.780200
O21	O2	0.815210	0.292500	0.842600
O31	O3	0.143660	0.243900	0.108050
O41	O4	0.203300	0.203300	0.082110
O51	O5	0.223260	0.249000	0.175260
H11	H1	0.232100	0.272100	0.160000
C11	C1	0.840700	0.262800	0.816200
C21	C2	0.887200	0.266400	0.819500
C31	C3	0.914100	0.242600	0.788000
H21	H2	0.900800	0.231100	0.761600
C41	C4	0.961800	0.235800	0.795800
H31	H3	0.979100	0.218900	0.775300
C51	C5	0.981400	0.254200	0.833300
C61	C6	0.954100	0.276900	0.864000
H41	H4	0.967200	0.288500	0.890400
C71	C7	0.907600	0.283100	0.857000
H51	H5	0.890500	0.299000	0.878500
C81	C8	0.062200	0.252900	0.809200
H61	H6	0.050800	0.258000	0.780000
C91	C9	0.030300	0.249400	0.844200
C101	C10	0.047800	0.245000	0.887300
H71	H7	0.028200	0.244300	0.912200
C111	C11	0.093900	0.241700	0.894300
C121	C12	0.122800	0.244600	0.857500
H81	H8	0.154000	0.242800	0.862700
C131	C13	0.166400	0.224300	0.078100
C141	C14	0.148700	0.228200	0.029200
C151	C15	0.172000	0.210500	0.991300
H91	H9	0.199900	0.195900	0.995500
C161	C16	0.154400	0.214600	0.948400
H101	H10	0.170400	0.202500	0.923800
C171	C17	0.113600	0.236300	0.940800
C181	C18	0.090500	0.255100	0.976600
H111	H11	0.064100	0.272000	0.971700
C191	C19	0.107600	0.248500	0.021200
H121	H12	0.090200	0.258200	0.045900
Yb21	Yb2	0.355670	0.754630	0.682930
N21	N2	0.392400	0.750200	0.313200
O61	O6	0.680600	0.749900	0.280200
O71	O7	0.684790	0.707500	0.342600
O81	O8	0.356340	0.756100	0.608050
O91	O9	0.296700	0.796700	0.582110
O101	O10	0.276740	0.751000	0.675260
H131	H13	0.267900	0.727900	0.660000
C201	C20	0.659300	0.737200	0.316200
C211	C21	0.612800	0.733600	0.319500
C221	C22	0.585900	0.757400	0.288000
H141	H14	0.599200	0.768900	0.261600
C231	C23	0.538200	0.764200	0.295800
H151	H15	0.520900	0.781100	0.275300
C241	C24	0.518600	0.745800	0.333300
C251	C25	0.545900	0.723100	0.364000
H161	H16	0.532800	0.711500	0.390400
C261	C26	0.592400	0.716900	0.357000
H171	H17	0.609500	0.701000	0.378500
C271	C27	0.437800	0.747100	0.309200
H181	H18	0.449200	0.742000	0.280000
C281	C28	0.469700	0.750600	0.344200
C291	C29	0.452200	0.755000	0.387300
H191	H19	0.471800	0.755700	0.412200
C301	C30	0.406100	0.758300	0.394300
C311	C31	0.377200	0.755400	0.357500
H201	H20	0.346000	0.757200	0.362700
C321	C32	0.333600	0.775700	0.578100
C331	C33	0.351300	0.771800	0.529200
C341	C34	0.328000	0.789500	0.491300
H211	H21	0.300100	0.804100	0.495500
C351	C35	0.345600	0.785400	0.448400
H221	H22	0.329600	0.797500	0.423800
C361	C36	0.386400	0.763700	0.440800
C371	C37	0.409500	0.744900	0.476600
H231	H23	0.435900	0.728000	0.471700
C381	C38	0.392400	0.751500	0.521200
H241	H24	0.409800	0.741800	0.545900
Yb31	Yb3	0.855670	0.745370	0.317070
N31	N3	0.892400	0.749800	0.686800
O111	O11	0.180600	0.750100	0.719800
O121	O12	0.184790	0.792500	0.657400
O131	O13	0.856340	0.743900	0.391950
O141	O14	0.796700	0.703300	0.417890
O151	O15	0.776740	0.749000	0.324740
H251	H25	0.767900	0.772100	0.340000
C391	C39	0.159300	0.762800	0.683800
C401	C40	0.112800	0.766400	0.680500
C411	C41	0.085900	0.742600	0.712000
H261	H26	0.099200	0.731100	0.738400
C421	C42	0.038200	0.735800	0.704200
H271	H27	0.020900	0.718900	0.724700
C431	C43	0.018600	0.754200	0.666700
C441	C44	0.045900	0.776900	0.636000
H281	H28	0.032800	0.788500	0.609600
C451	C45	0.092400	0.783100	0.643000
H291	H29	0.109500	0.799000	0.621500
C461	C46	0.937800	0.752900	0.690800
H301	H30	0.949200	0.758000	0.720000
C471	C47	0.969700	0.749400	0.655800
C481	C48	0.952200	0.745000	0.612700
H311	H31	0.971800	0.744300	0.587800
C491	C49	0.906100	0.741700	0.605700
C501	C50	0.877200	0.744600	0.642500
H321	H32	0.846000	0.742800	0.637300
C511	C51	0.833600	0.724300	0.421900
C521	C52	0.851300	0.728200	0.470800
C531	C53	0.828000	0.710500	0.508700
H331	H33	0.800100	0.695900	0.504500
C541	C54	0.845600	0.714600	0.551600
H341	H34	0.829600	0.702500	0.576200
C551	C55	0.886400	0.736300	0.559200
C561	C56	0.909500	0.755100	0.523400
H351	H35	0.935900	0.772000	0.528300
C571	C57	0.892400	0.748500	0.478800
H361	H36	0.909800	0.758200	0.454100
Yb41	Yb4	0.644330	0.254630	0.817070
N41	N4	0.607600	0.250200	0.186800
O161	O16	0.319400	0.249900	0.219800
O171	O17	0.315210	0.207500	0.157400
O181	O18	0.643660	0.256100	0.891950
O191	O19	0.703300	0.296700	0.917890
O201	O20	0.723260	0.251000	0.824740
H371	H37	0.732100	0.227900	0.840000
C581	C58	0.340700	0.237200	0.183800
C591	C59	0.387200	0.233600	0.180500
C601	C60	0.414100	0.257400	0.212000
H381	H38	0.400800	0.268900	0.238400
C611	C61	0.461800	0.264200	0.204200
H391	H39	0.479100	0.281100	0.224700
C621	C62	0.481400	0.245800	0.166700
C631	C63	0.454100	0.223100	0.136000
H401	H40	0.467200	0.211500	0.109600
C641	C64	0.407600	0.216900	0.143000
H411	H41	0.390500	0.201000	0.121500
C651	C65	0.562200	0.247100	0.190800
H421	H42	0.550800	0.242000	0.220000
C661	C66	0.530300	0.250600	0.155800
C671	C67	0.547800	0.255000	0.112700
H431	H43	0.528200	0.255700	0.087800
C681	C68	0.593900	0.258300	0.105700
C691	C69	0.622800	0.255400	0.142500
H441	H44	0.654000	0.257200	0.137300
C701	C70	0.666400	0.275700	0.921900
C711	C71	0.648700	0.271800	0.970800
C721	C72	0.672000	0.289500	0.008700
H451	H45	0.699900	0.304100	0.004500
C731	C73	0.654400	0.285400	0.051600
H461	H46	0.670400	0.297500	0.076200
C741	C74	0.613600	0.263700	0.059200
C751	C75	0.590500	0.244900	0.023400
H471	H47	0.564100	0.228000	0.028300
C761	C76	0.607600	0.251500	0.978800
H481	H48	0.590200	0.241800	0.954100
Yb51	Yb5	0.182930	0.144330	0.245370
N51	N5	0.813200	0.107600	0.249800
O211	O21	0.780200	0.819400	0.250100
O221	O22	0.842600	0.815210	0.292500
O231	O23	0.108050	0.143660	0.243900
O241	O24	0.082110	0.203300	0.203300
O251	O25	0.175260	0.223260	0.249000
H491	H49	0.160000	0.232100	0.272100
C771	C77	0.816200	0.840700	0.262800
C781	C78	0.819500	0.887200	0.266400
C791	C79	0.788000	0.914100	0.242600
H501	H50	0.761600	0.900800	0.231100
C801	C80	0.795800	0.961800	0.235800
H511	H51	0.775300	0.979100	0.218900
C811	C81	0.833300	0.981400	0.254200
C821	C82	0.864000	0.954100	0.276900
H521	H52	0.890400	0.967200	0.288500
C831	C83	0.857000	0.907600	0.283100
H531	H53	0.878500	0.890500	0.299000
C841	C84	0.809200	0.062200	0.252900
H541	H54	0.780000	0.050800	0.258000
C851	C85	0.844200	0.030300	0.249400
C861	C86	0.887300	0.047800	0.245000
H551	H55	0.912200	0.028200	0.244300
C871	C87	0.894300	0.093900	0.241700
C881	C88	0.857500	0.122800	0.244600
H561	H56	0.862700	0.154000	0.242800
C891	C89	0.078100	0.166400	0.224300
C901	C90	0.029200	0.148700	0.228200
C911	C91	0.991300	0.172000	0.210500
H571	H57	0.995500	0.199900	0.195900
C921	C92	0.948400	0.154400	0.214600
H581	H58	0.923800	0.170400	0.202500
C931	C93	0.940800	0.113600	0.236300
C941	C94	0.976600	0.090500	0.255100
H591	H59	0.971700	0.064100	0.272000
C951	C95	0.021200	0.107600	0.248500
H601	H60	0.045900	0.090200	0.258200
Yb61	Yb6	0.682930	0.355670	0.754630
N61	N6	0.313200	0.392400	0.750200
O261	O26	0.280200	0.680600	0.749900
O271	O27	0.342600	0.684790	0.707500
O281	O28	0.608050	0.356340	0.756100
O291	O29	0.582110	0.296700	0.796700
O301	O30	0.675260	0.276740	0.751000
H611	H61	0.660000	0.267900	0.727900
C961	C96	0.316200	0.659300	0.737200
C971	C97	0.319500	0.612800	0.733600
C981	C98	0.288000	0.585900	0.757400
H621	H62	0.261600	0.599200	0.768900
C991	C99	0.295800	0.538200	0.764200
H631	H63	0.275300	0.520900	0.781100
C1001	C100	0.333300	0.518600	0.745800
C1011	C101	0.364000	0.545900	0.723100
H641	H64	0.390400	0.532800	0.711500
C1021	C102	0.357000	0.592400	0.716900
H651	H65	0.378500	0.609500	0.701000
C1031	C103	0.309200	0.437800	0.747100
H661	H66	0.280000	0.449200	0.742000
C1041	C104	0.344200	0.469700	0.750600
C1051	C105	0.387300	0.452200	0.755000
H671	H67	0.412200	0.471800	0.755700
C1061	C106	0.394300	0.406100	0.758300
C1071	C107	0.357500	0.377200	0.755400
H681	H68	0.362700	0.346000	0.757200
C1081	C108	0.578100	0.333600	0.775700
C1091	C109	0.529200	0.351300	0.771800
C1101	C110	0.491300	0.328000	0.789500
H691	H69	0.495500	0.300100	0.804100
C1111	C111	0.448400	0.345600	0.785400
H701	H70	0.423800	0.329600	0.797500
C1121	C112	0.440800	0.386400	0.763700
C1131	C113	0.476600	0.409500	0.744900
H711	H71	0.471700	0.435900	0.728000
C1141	C114	0.521200	0.392400	0.751500
H721	H72	0.545900	0.409800	0.741800
Yb71	Yb7	0.317070	0.855670	0.745370
N71	N7	0.686800	0.892400	0.749800
O311	O31	0.719800	0.180600	0.750100
O321	O32	0.657400	0.184790	0.792500
O331	O33	0.391950	0.856340	0.743900
O341	O34	0.417890	0.796700	0.703300
O351	O35	0.324740	0.776740	0.749000
H731	H73	0.340000	0.767900	0.772100
C1151	C115	0.683800	0.159300	0.762800
C1161	C116	0.680500	0.112800	0.766400
C1171	C117	0.712000	0.085900	0.742600
H741	H74	0.738400	0.099200	0.731100
C1181	C118	0.704200	0.038200	0.735800
H751	H75	0.724700	0.020900	0.718900
C1191	C119	0.666700	0.018600	0.754200
C1201	C120	0.636000	0.045900	0.776900
H761	H76	0.609600	0.032800	0.788500
C1211	C121	0.643000	0.092400	0.783100
H771	H77	0.621500	0.109500	0.799000
C1221	C122	0.690800	0.937800	0.752900
H781	H78	0.720000	0.949200	0.758000
C1231	C123	0.655800	0.969700	0.749400
C1241	C124	0.612700	0.952200	0.745000
H791	H79	0.587800	0.971800	0.744300
C1251	C125	0.605700	0.906100	0.741700
C1261	C126	0.642500	0.877200	0.744600
H801	H80	0.637300	0.846000	0.742800
C1271	C127	0.421900	0.833600	0.724300
C1281	C128	0.470800	0.851300	0.728200
C1291	C129	0.508700	0.828000	0.710500
H811	H81	0.504500	0.800100	0.695900
C1301	C130	0.551600	0.845600	0.714600
H821	H82	0.576200	0.829600	0.702500
C1311	C131	0.559200	0.886400	0.736300
C1321	C132	0.523400	0.909500	0.755100
H831	H83	0.528300	0.935900	0.772000
C1331	C133	0.478800	0.892400	0.748500
H841	H84	0.454100	0.909800	0.758200
Yb81	Yb8	0.817070	0.644330	0.254630
N81	N8	0.186800	0.607600	0.250200
O361	O36	0.219800	0.319400	0.249900
O371	O37	0.157400	0.315210	0.207500
O381	O38	0.891950	0.643660	0.256100
O391	O39	0.917890	0.703300	0.296700
O401	O40	0.824740	0.723260	0.251000
H851	H85	0.840000	0.732100	0.227900
C1341	C134	0.183800	0.340700	0.237200
C1351	C135	0.180500	0.387200	0.233600
C1361	C136	0.212000	0.414100	0.257400
H861	H86	0.238400	0.400800	0.268900
C1371	C137	0.204200	0.461800	0.264200
H871	H87	0.224700	0.479100	0.281100
C1381	C138	0.166700	0.481400	0.245800
C1391	C139	0.136000	0.454100	0.223100
H881	H88	0.109600	0.467200	0.211500
C1401	C140	0.143000	0.407600	0.216900
H891	H89	0.121500	0.390500	0.201000
C1411	C141	0.190800	0.562200	0.247100
H901	H90	0.220000	0.550800	0.242000
C1421	C142	0.155800	0.530300	0.250600
C1431	C143	0.112700	0.547800	0.255000
H911	H91	0.087800	0.528200	0.255700
C1441	C144	0.105700	0.593900	0.258300
C1451	C145	0.142500	0.622800	0.255400
H921	H92	0.137300	0.654000	0.257200
C1461	C146	0.921900	0.666400	0.275700
C1471	C147	0.970800	0.648700	0.271800
C1481	C148	0.008700	0.672000	0.289500
H931	H93	0.004500	0.699900	0.304100
C1491	C149	0.051600	0.654400	0.285400
H941	H94	0.076200	0.670400	0.297500
C1501	C150	0.059200	0.613600	0.263700
C1511	C151	0.023400	0.590500	0.244900
H951	H95	0.028300	0.564100	0.228000
C1521	C152	0.978800	0.607600	0.251500
H961	H96	0.954100	0.590200	0.241800
Yb91	Yb9	0.245370	0.182930	0.144330
N91	N9	0.249800	0.813200	0.107600
O411	O41	0.250100	0.780200	0.819400
O421	O42	0.292500	0.842600	0.815210
O431	O43	0.243900	0.108050	0.143660
O441	O44	0.203300	0.082110	0.203300
O451	O45	0.249000	0.175260	0.223260
H971	H97	0.272100	0.160000	0.232100
C1531	C153	0.262800	0.816200	0.840700
C1541	C154	0.266400	0.819500	0.887200
C1551	C155	0.242600	0.788000	0.914100
H981	H98	0.231100	0.761600	0.900800
C1561	C156	0.235800	0.795800	0.961800
H991	H99	0.218900	0.775300	0.979100
C1571	C157	0.254200	0.833300	0.981400
C1581	C158	0.276900	0.864000	0.954100
H1001	H100	0.288500	0.890400	0.967200
C1591	C159	0.283100	0.857000	0.907600
H1011	H101	0.299000	0.878500	0.890500
C1601	C160	0.252900	0.809200	0.062200
H1021	H102	0.258000	0.780000	0.050800
C1611	C161	0.249400	0.844200	0.030300
C1621	C162	0.245000	0.887300	0.047800
H1031	H103	0.244300	0.912200	0.028200
C1631	C163	0.241700	0.894300	0.093900
C1641	C164	0.244600	0.857500	0.122800
H1041	H104	0.242800	0.862700	0.154000
C1651	C165	0.224300	0.078100	0.166400
C1661	C166	0.228200	0.029200	0.148700
C1671	C167	0.210500	0.991300	0.172000
H1051	H105	0.195900	0.995500	0.199900
C1681	C168	0.214600	0.948400	0.154400
H1061	H106	0.202500	0.923800	0.170400
C1691	C169	0.236300	0.940800	0.113600
C1701	C170	0.255100	0.976600	0.090500
H1071	H107	0.272000	0.971700	0.064100
C1711	C171	0.248500	0.021200	0.107600
H1081	H108	0.258200	0.045900	0.090200
Yb101	Yb10	0.754630	0.682930	0.355670
N101	N10	0.750200	0.313200	0.392400
O461	O46	0.749900	0.280200	0.680600
O471	O47	0.707500	0.342600	0.684790
O481	O48	0.756100	0.608050	0.356340
O491	O49	0.796700	0.582110	0.296700
O501	O50	0.751000	0.675260	0.276740
H1091	H109	0.727900	0.660000	0.267900
C1721	C172	0.737200	0.316200	0.659300
C1731	C173	0.733600	0.319500	0.612800
C1741	C174	0.757400	0.288000	0.585900
H1101	H110	0.768900	0.261600	0.599200
C1751	C175	0.764200	0.295800	0.538200
H1111	H111	0.781100	0.275300	0.520900
C1761	C176	0.745800	0.333300	0.518600
C1771	C177	0.723100	0.364000	0.545900
H1121	H112	0.711500	0.390400	0.532800
C1781	C178	0.716900	0.357000	0.592400
H1131	H113	0.701000	0.378500	0.609500
C1791	C179	0.747100	0.309200	0.437800
H1141	H114	0.742000	0.280000	0.449200
C1801	C180	0.750600	0.344200	0.469700
C1811	C181	0.755000	0.387300	0.452200
H1151	H115	0.755700	0.412200	0.471800
C1821	C182	0.758300	0.394300	0.406100
C1831	C183	0.755400	0.357500	0.377200
H1161	H116	0.757200	0.362700	0.346000
C1841	C184	0.775700	0.578100	0.333600
C1851	C185	0.771800	0.529200	0.351300
C1861	C186	0.789500	0.491300	0.328000
H1171	H117	0.804100	0.495500	0.300100
C1871	C187	0.785400	0.448400	0.345600
H1181	H118	0.797500	0.423800	0.329600
C1881	C188	0.763700	0.440800	0.386400
C1891	C189	0.744900	0.476600	0.409500
H1191	H119	0.728000	0.471700	0.435900
C1901	C190	0.751500	0.521200	0.392400
H1201	H120	0.741800	0.545900	0.409800
Yb111	Yb11	0.745370	0.317070	0.855670
N111	N11	0.749800	0.686800	0.892400
O511	O51	0.750100	0.719800	0.180600
O521	O52	0.792500	0.657400	0.184790
O531	O53	0.743900	0.391950	0.856340
O541	O54	0.703300	0.417890	0.796700
O551	O55	0.749000	0.324740	0.776740
H1211	H121	0.772100	0.340000	0.767900
C1911	C191	0.762800	0.683800	0.159300
C1921	C192	0.766400	0.680500	0.112800
C1931	C193	0.742600	0.712000	0.085900
H1221	H122	0.731100	0.738400	0.099200
C1941	C194	0.735800	0.704200	0.038200
H1231	H123	0.718900	0.724700	0.020900
C1951	C195	0.754200	0.666700	0.018600
C1961	C196	0.776900	0.636000	0.045900
H1241	H124	0.788500	0.609600	0.032800
C1971	C197	0.783100	0.643000	0.092400
H1251	H125	0.799000	0.621500	0.109500
C1981	C198	0.752900	0.690800	0.937800
H1261	H126	0.758000	0.720000	0.949200
C1991	C199	0.749400	0.655800	0.969700
C2001	C200	0.745000	0.612700	0.952200
H1271	H127	0.744300	0.587800	0.971800
C2011	C201	0.741700	0.605700	0.906100
C2021	C202	0.744600	0.642500	0.877200
H1281	H128	0.742800	0.637300	0.846000
C2031	C203	0.724300	0.421900	0.833600
C2041	C204	0.728200	0.470800	0.851300
C2051	C205	0.710500	0.508700	0.828000
H1291	H129	0.695900	0.504500	0.800100
C2061	C206	0.714600	0.551600	0.845600
H1301	H130	0.702500	0.576200	0.829600
C2071	C207	0.736300	0.559200	0.886400
C2081	C208	0.755100	0.523400	0.909500
H1311	H131	0.772000	0.528300	0.935900
C2091	C209	0.748500	0.478800	0.892400
H1321	H132	0.758200	0.454100	0.909800
Yb121	Yb12	0.254630	0.817070	0.644330
N121	N12	0.250200	0.186800	0.607600
O561	O56	0.249900	0.219800	0.319400
O571	O57	0.207500	0.157400	0.315210
O581	O58	0.256100	0.891950	0.643660
O591	O59	0.296700	0.917890	0.703300
O601	O60	0.251000	0.824740	0.723260
H1331	H133	0.227900	0.840000	0.732100
C2101	C210	0.237200	0.183800	0.340700
C2111	C211	0.233600	0.180500	0.387200
C2121	C212	0.257400	0.212000	0.414100
H1341	H134	0.268900	0.238400	0.400800
C2131	C213	0.264200	0.204200	0.461800
H1351	H135	0.281100	0.224700	0.479100
C2141	C214	0.245800	0.166700	0.481400
C2151	C215	0.223100	0.136000	0.454100
H1361	H136	0.211500	0.109600	0.467200
C2161	C216	0.216900	0.143000	0.407600
H1371	H137	0.201000	0.121500	0.390500
C2171	C217	0.247100	0.190800	0.562200
H1381	H138	0.242000	0.220000	0.550800
C2181	C218	0.250600	0.155800	0.530300
C2191	C219	0.255000	0.112700	0.547800
H1391	H139	0.255700	0.087800	0.528200
C2201	C220	0.258300	0.105700	0.593900
C2211	C221	0.255400	0.142500	0.622800
H1401	H140	0.257200	0.137300	0.654000
C2221	C222	0.275700	0.921900	0.666400
C2231	C223	0.271800	0.970800	0.648700
C2241	C224	0.289500	0.008700	0.672000
H1411	H141	0.304100	0.004500	0.699900
C2251	C225	0.285400	0.051600	0.654400
H1421	H142	0.297500	0.076200	0.670400
C2261	C226	0.263700	0.059200	0.613600
C2271	C227	0.244900	0.023400	0.590500
H1431	H143	0.228000	0.028300	0.564100
C2281	C228	0.251500	0.978800	0.607600
H1441	H144	0.241800	0.954100	0.590200
Yb131	Yb13	0.749540	0.250460	0.750460
Yb141	Yb14	0.750460	0.749540	0.250460
Yb151	Yb15	0.250460	0.750460	0.749540
Yb161	Yb16	0.249540	0.249540	0.249540
O611	O61	0.172570	0.172570	0.172570
H1451	H145	0.155870	0.155870	0.155870
O621	O62	0.327430	0.827430	0.672570
H1461	H146	0.344130	0.844130	0.655870
O631	O63	0.827430	0.672570	0.327430
H1471	H147	0.844130	0.655870	0.344130
O641	O64	0.672570	0.327430	0.827430
H1481	H148	0.655870	0.344130	0.844130
Yb171	Yb17	0.855670	0.754630	0.817070
N131	N13	0.892400	0.750200	0.186800
O651	O65	0.180600	0.749900	0.219800
O661	O66	0.184790	0.707500	0.157400
O671	O67	0.856340	0.756100	0.891950
O681	O68	0.796700	0.796700	0.917890
O691	O69	0.776740	0.751000	0.824740
H1491	H149	0.767900	0.727900	0.840000
C2291	C229	0.159300	0.737200	0.183800
C2301	C230	0.112800	0.733600	0.180500
C2311	C231	0.085900	0.757400	0.212000
H1501	H150	0.099200	0.768900	0.238400
C2321	C232	0.038200	0.764200	0.204200
H1511	H151	0.020900	0.781100	0.224700
C2331	C233	0.018600	0.745800	0.166700
C2341	C234	0.045900	0.723100	0.136000
H1521	H152	0.032800	0.711500	0.109600
C2351	C235	0.092400	0.716900	0.143000
H1531	H153	0.109500	0.701000	0.121500
C2361	C236	0.937800	0.747100	0.190800
H1541	H154	0.949200	0.742000	0.220000
C2371	C237	0.969700	0.750600	0.155800
C2381	C238	0.952200	0.755000	0.112700
H1551	H155	0.971800	0.755700	0.087800
C2391	C239	0.906100	0.758300	0.105700
C2401	C240	0.877200	0.755400	0.142500
H1561	H156	0.846000	0.757200	0.137300
C2411	C241	0.833600	0.775700	0.921900
C2421	C242	0.851300	0.771800	0.970800
C2431	C243	0.828000	0.789500	0.008700
H1571	H157	0.800100	0.804100	0.004500
C2441	C244	0.845600	0.785400	0.051600
H1581	H158	0.829600	0.797500	0.076200
C2451	C245	0.886400	0.763700	0.059200
C2461	C246	0.909500	0.744900	0.023400
H1591	H159	0.935900	0.728000	0.028300
C2471	C247	0.892400	0.751500	0.978800
H1601	H160	0.909800	0.741800	0.954100
Yb181	Yb18	0.644330	0.245370	0.317070
N141	N14	0.607600	0.249800	0.686800
O701	O70	0.319400	0.250100	0.719800
O711	O71	0.315210	0.292500	0.657400
O721	O72	0.643660	0.243900	0.391950
O731	O73	0.703300	0.203300	0.417890
O741	O74	0.723260	0.249000	0.324740
H1611	H161	0.732100	0.272100	0.340000
C2481	C248	0.340700	0.262800	0.683800
C2491	C249	0.387200	0.266400	0.680500
C2501	C250	0.414100	0.242600	0.712000
H1621	H162	0.400800	0.231100	0.738400
C2511	C251	0.461800	0.235800	0.704200
H1631	H163	0.479100	0.218900	0.724700
C2521	C252	0.481400	0.254200	0.666700
C2531	C253	0.454100	0.276900	0.636000
H1641	H164	0.467200	0.288500	0.609600
C2541	C254	0.407600	0.283100	0.643000
H1651	H165	0.390500	0.299000	0.621500
C2551	C255	0.562200	0.252900	0.690800
H1661	H166	0.550800	0.258000	0.720000
C2561	C256	0.530300	0.249400	0.655800
C2571	C257	0.547800	0.245000	0.612700
H1671	H167	0.528200	0.244300	0.587800
C2581	C258	0.593900	0.241700	0.605700
C2591	C259	0.622800	0.244600	0.642500
H1681	H168	0.654000	0.242800	0.637300
C2601	C260	0.666400	0.224300	0.421900
C2611	C261	0.648700	0.228200	0.470800
C2621	C262	0.672000	0.210500	0.508700
H1691	H169	0.699900	0.195900	0.504500
C2631	C263	0.654400	0.214600	0.551600
H1701	H170	0.670400	0.202500	0.576200
C2641	C264	0.613600	0.236300	0.559200
C2651	C265	0.590500	0.255100	0.523400
H1711	H171	0.564100	0.272000	0.528300
C2661	C266	0.607600	0.248500	0.478800
H1721	H172	0.590200	0.258200	0.454100
Yb191	Yb19	0.144330	0.254630	0.682930
N151	N15	0.107600	0.250200	0.313200
O751	O75	0.819400	0.249900	0.280200
O761	O76	0.815210	0.207500	0.342600
O771	O77	0.143660	0.256100	0.608050
O781	O78	0.203300	0.296700	0.582110
O791	O79	0.223260	0.251000	0.675260
H1731	H173	0.232100	0.227900	0.660000
C2671	C267	0.840700	0.237200	0.316200
C2681	C268	0.887200	0.233600	0.319500
C2691	C269	0.914100	0.257400	0.288000
H1741	H174	0.900800	0.268900	0.261600
C2701	C270	0.961800	0.264200	0.295800
H1751	H175	0.979100	0.281100	0.275300
C2711	C271	0.981400	0.245800	0.333300
C2721	C272	0.954100	0.223100	0.364000
H1761	H176	0.967200	0.211500	0.390400
C2731	C273	0.907600	0.216900	0.357000
H1771	H177	0.890500	0.201000	0.378500
C2741	C274	0.062200	0.247100	0.309200
H1781	H178	0.050800	0.242000	0.280000
C2751	C275	0.030300	0.250600	0.344200
C2761	C276	0.047800	0.255000	0.387300
H1791	H179	0.028200	0.255700	0.412200
C2771	C277	0.093900	0.258300	0.394300
C2781	C278	0.122800	0.255400	0.357500
H1801	H180	0.154000	0.257200	0.362700
C2791	C279	0.166400	0.275700	0.578100
C2801	C280	0.148700	0.271800	0.529200
C2811	C281	0.172000	0.289500	0.491300
H1811	H181	0.199900	0.304100	0.495500
C2821	C282	0.154400	0.285400	0.448400
H1821	H182	0.170400	0.297500	0.423800
C2831	C283	0.113600	0.263700	0.440800
C2841	C284	0.090500	0.244900	0.476600
H1831	H183	0.064100	0.228000	0.471700
C2851	C285	0.107600	0.251500	0.521200
H1841	H184	0.090200	0.241800	0.545900
Yb201	Yb20	0.355670	0.745370	0.182930
N161	N16	0.392400	0.749800	0.813200
O801	O80	0.680600	0.750100	0.780200
O811	O81	0.684790	0.792500	0.842600
O821	O82	0.356340	0.743900	0.108050
O831	O83	0.296700	0.703300	0.082110
O841	O84	0.276740	0.749000	0.175260
H1851	H185	0.267900	0.772100	0.160000
C2861	C286	0.659300	0.762800	0.816200
C2871	C287	0.612800	0.766400	0.819500
C2881	C288	0.585900	0.742600	0.788000
H1861	H186	0.599200	0.731100	0.761600
C2891	C289	0.538200	0.735800	0.795800
H1871	H187	0.520900	0.718900	0.775300
C2901	C290	0.518600	0.754200	0.833300
C2911	C291	0.545900	0.776900	0.864000
H1881	H188	0.532800	0.788500	0.890400
C2921	C292	0.592400	0.783100	0.857000
H1891	H189	0.609500	0.799000	0.878500
C2931	C293	0.437800	0.752900	0.809200
H1901	H190	0.449200	0.758000	0.780000
C2941	C294	0.469700	0.749400	0.844200
C2951	C295	0.452200	0.745000	0.887300
H1911	H191	0.471800	0.744300	0.912200
C2961	C296	0.406100	0.741700	0.894300
C2971	C297	0.377200	0.744600	0.857500
H1921	H192	0.346000	0.742800	0.862700
C2981	C298	0.333600	0.724300	0.078100
C2991	C299	0.351300	0.728200	0.029200
C3001	C300	0.328000	0.710500	0.991300
H1931	H193	0.300100	0.695900	0.995500
C3011	C301	0.345600	0.714600	0.948400
H1941	H194	0.329600	0.702500	0.923800
C3021	C302	0.386400	0.736300	0.940800
C3031	C303	0.409500	0.755100	0.976600
H1951	H195	0.435900	0.772000	0.971700
C3041	C304	0.392400	0.748500	0.021200
H1961	H196	0.409800	0.758200	0.045900
Yb211	Yb21	0.817070	0.855670	0.754630
N171	N17	0.186800	0.892400	0.750200
O851	O85	0.219800	0.180600	0.749900
O861	O86	0.157400	0.184790	0.707500
O871	O87	0.891950	0.856340	0.756100
O881	O88	0.917890	0.796700	0.796700
O891	O89	0.824740	0.776740	0.751000
H1971	H197	0.840000	0.767900	0.727900
C3051	C305	0.183800	0.159300	0.737200
C3061	C306	0.180500	0.112800	0.733600
C3071	C307	0.212000	0.085900	0.757400
H1981	H198	0.238400	0.099200	0.768900
C3081	C308	0.204200	0.038200	0.764200
H1991	H199	0.224700	0.020900	0.781100
C3091	C309	0.166700	0.018600	0.745800
C3101	C310	0.136000	0.045900	0.723100
H2001	H200	0.109600	0.032800	0.711500
C3111	C311	0.143000	0.092400	0.716900
H2011	H201	0.121500	0.109500	0.701000
C3121	C312	0.190800	0.937800	0.747100
H2021	H202	0.220000	0.949200	0.742000
C3131	C313	0.155800	0.969700	0.750600
C3141	C314	0.112700	0.952200	0.755000
H2031	H203	0.087800	0.971800	0.755700
C3151	C315	0.105700	0.906100	0.758300
C3161	C316	0.142500	0.877200	0.755400
H2041	H204	0.137300	0.846000	0.757200
C3171	C317	0.921900	0.833600	0.775700
C3181	C318	0.970800	0.851300	0.771800
C3191	C319	0.008700	0.828000	0.789500
H2051	H205	0.004500	0.800100	0.804100
C3201	C320	0.051600	0.845600	0.785400
H2061	H206	0.076200	0.829600	0.797500
C3211	C321	0.059200	0.886400	0.763700
C3221	C322	0.023400	0.909500	0.744900
H2071	H207	0.028300	0.935900	0.728000
C3231	C323	0.978800	0.892400	0.751500
H2081	H208	0.954100	0.909800	0.741800
Yb221	Yb22	0.317070	0.644330	0.245370
N181	N18	0.686800	0.607600	0.249800
O901	O90	0.719800	0.319400	0.250100
O911	O91	0.657400	0.315210	0.292500
O921	O92	0.391950	0.643660	0.243900
O931	O93	0.417890	0.703300	0.203300
O941	O94	0.324740	0.723260	0.249000
H2091	H209	0.340000	0.732100	0.272100
C3241	C324	0.683800	0.340700	0.262800
C3251	C325	0.680500	0.387200	0.266400
C3261	C326	0.712000	0.414100	0.242600
H2101	H210	0.738400	0.400800	0.231100
C3271	C327	0.704200	0.461800	0.235800
H2111	H211	0.724700	0.479100	0.218900
C3281	C328	0.666700	0.481400	0.254200
C3291	C329	0.636000	0.454100	0.276900
H2121	H212	0.609600	0.467200	0.288500
C3301	C330	0.643000	0.407600	0.283100
H2131	H213	0.621500	0.390500	0.299000
C3311	C331	0.690800	0.562200	0.252900
H2141	H214	0.720000	0.550800	0.258000
C3321	C332	0.655800	0.530300	0.249400
C3331	C333	0.612700	0.547800	0.245000
H2151	H215	0.587800	0.528200	0.244300
C3341	C334	0.605700	0.593900	0.241700
C3351	C335	0.642500	0.622800	0.244600
H2161	H216	0.637300	0.654000	0.242800
C3361	C336	0.421900	0.666400	0.224300
C3371	C337	0.470800	0.648700	0.228200
C3381	C338	0.508700	0.672000	0.210500
H2171	H217	0.504500	0.699900	0.195900
C3391	C339	0.551600	0.654400	0.214600
H2181	H218	0.576200	0.670400	0.202500
C3401	C340	0.559200	0.613600	0.236300
C3411	C341	0.523400	0.590500	0.255100
H2191	H219	0.528300	0.564100	0.272000
C3421	C342	0.478800	0.607600	0.248500
H2201	H220	0.454100	0.590200	0.258200
Yb231	Yb23	0.682930	0.144330	0.254630
N191	N19	0.313200	0.107600	0.250200
O951	O95	0.280200	0.819400	0.249900
O961	O96	0.342600	0.815210	0.207500
O971	O97	0.608050	0.143660	0.256100
O981	O98	0.582110	0.203300	0.296700
O991	O99	0.675260	0.223260	0.251000
H2211	H221	0.660000	0.232100	0.227900
C3431	C343	0.316200	0.840700	0.237200
C3441	C344	0.319500	0.887200	0.233600
C3451	C345	0.288000	0.914100	0.257400
H2221	H222	0.261600	0.900800	0.268900
C3461	C346	0.295800	0.961800	0.264200
H2231	H223	0.275300	0.979100	0.281100
C3471	C347	0.333300	0.981400	0.245800
C3481	C348	0.364000	0.954100	0.223100
H2241	H224	0.390400	0.967200	0.211500
C3491	C349	0.357000	0.907600	0.216900
H2251	H225	0.378500	0.890500	0.201000
C3501	C350	0.309200	0.062200	0.247100
H2261	H226	0.280000	0.050800	0.242000
C3511	C351	0.344200	0.030300	0.250600
C3521	C352	0.387300	0.047800	0.255000
H2271	H227	0.412200	0.028200	0.255700
C3531	C353	0.394300	0.093900	0.258300
C3541	C354	0.357500	0.122800	0.255400
H2281	H228	0.362700	0.154000	0.257200
C3551	C355	0.578100	0.166400	0.275700
C3561	C356	0.529200	0.148700	0.271800
C3571	C357	0.491300	0.172000	0.289500
H2291	H229	0.495500	0.199900	0.304100
C3581	C358	0.448400	0.154400	0.285400
H2301	H230	0.423800	0.170400	0.297500
C3591	C359	0.440800	0.113600	0.263700
C3601	C360	0.476600	0.090500	0.244900
H2311	H231	0.471700	0.064100	0.228000
C3611	C361	0.521200	0.107600	0.251500
H2321	H232	0.545900	0.090200	0.241800
Yb241	Yb24	0.182930	0.355670	0.745370
N201	N20	0.813200	0.392400	0.749800
O1001	O100	0.780200	0.680600	0.750100
O1011	O101	0.842600	0.684790	0.792500
O1021	O102	0.108050	0.356340	0.743900
O1031	O103	0.082110	0.296700	0.703300
O1041	O104	0.175260	0.276740	0.749000
H2331	H233	0.160000	0.267900	0.772100
C3621	C362	0.816200	0.659300	0.762800
C3631	C363	0.819500	0.612800	0.766400
C3641	C364	0.788000	0.585900	0.742600
H2341	H234	0.761600	0.599200	0.731100
C3651	C365	0.795800	0.538200	0.735800
H2351	H235	0.775300	0.520900	0.718900
C3661	C366	0.833300	0.518600	0.754200
C3671	C367	0.864000	0.545900	0.776900
H2361	H236	0.890400	0.532800	0.788500
C3681	C368	0.857000	0.592400	0.783100
H2371	H237	0.878500	0.609500	0.799000
C3691	C369	0.809200	0.437800	0.752900
H2381	H238	0.780000	0.449200	0.758000
C3701	C370	0.844200	0.469700	0.749400
C3711	C371	0.887300	0.452200	0.745000
H2391	H239	0.912200	0.471800	0.744300
C3721	C372	0.894300	0.406100	0.741700
C3731	C373	0.857500	0.377200	0.744600
H2401	H240	0.862700	0.346000	0.742800
C3741	C374	0.078100	0.333600	0.724300
C3751	C375	0.029200	0.351300	0.728200
C3761	C376	0.991300	0.328000	0.710500
H2411	H241	0.995500	0.300100	0.695900
C3771	C377	0.948400	0.345600	0.714600
H2421	H242	0.923800	0.329600	0.702500
C3781	C378	0.940800	0.386400	0.736300
C3791	C379	0.976600	0.409500	0.755100
H2431	H243	0.971700	0.435900	0.772000
C3801	C380	0.021200	0.392400	0.748500
H2441	H244	0.045900	0.409800	0.758200
Yb251	Yb25	0.754630	0.817070	0.855670
N211	N21	0.750200	0.186800	0.892400
O1051	O105	0.749900	0.219800	0.180600
O1061	O106	0.707500	0.157400	0.184790
O1071	O107	0.756100	0.891950	0.856340
O1081	O108	0.796700	0.917890	0.796700
O1091	O109	0.751000	0.824740	0.776740
H2451	H245	0.727900	0.840000	0.767900
C3811	C381	0.737200	0.183800	0.159300
C3821	C382	0.733600	0.180500	0.112800
C3831	C383	0.757400	0.212000	0.085900
H2461	H246	0.768900	0.238400	0.099200
C3841	C384	0.764200	0.204200	0.038200
H2471	H247	0.781100	0.224700	0.020900
C3851	C385	0.745800	0.166700	0.018600
C3861	C386	0.723100	0.136000	0.045900
H2481	H248	0.711500	0.109600	0.032800
C3871	C387	0.716900	0.143000	0.092400
H2491	H249	0.701000	0.121500	0.109500
C3881	C388	0.747100	0.190800	0.937800
H2501	H250	0.742000	0.220000	0.949200
C3891	C389	0.750600	0.155800	0.969700
C3901	C390	0.755000	0.112700	0.952200
H2511	H251	0.755700	0.087800	0.971800
C3911	C391	0.758300	0.105700	0.906100
C3921	C392	0.755400	0.142500	0.877200
H2521	H252	0.757200	0.137300	0.846000
C3931	C393	0.775700	0.921900	0.833600
C3941	C394	0.771800	0.970800	0.851300
C3951	C395	0.789500	0.008700	0.828000
H2531	H253	0.804100	0.004500	0.800100
C3961	C396	0.785400	0.051600	0.845600
H2541	H254	0.797500	0.076200	0.829600
C3971	C397	0.763700	0.059200	0.886400
C3981	C398	0.744900	0.023400	0.909500
H2551	H255	0.728000	0.028300	0.935900
C3991	C399	0.751500	0.978800	0.892400
H2561	H256	0.741800	0.954100	0.909800
Yb261	Yb26	0.245370	0.317070	0.644330
N221	N22	0.249800	0.686800	0.607600
O1101	O110	0.250100	0.719800	0.319400
O1111	O111	0.292500	0.657400	0.315210
O1121	O112	0.243900	0.391950	0.643660
O1131	O113	0.203300	0.417890	0.703300
O1141	O114	0.249000	0.324740	0.723260
H2571	H257	0.272100	0.340000	0.732100
C4001	C400	0.262800	0.683800	0.340700
C4011	C401	0.266400	0.680500	0.387200
C4021	C402	0.242600	0.712000	0.414100
H2581	H258	0.231100	0.738400	0.400800
C4031	C403	0.235800	0.704200	0.461800
H2591	H259	0.218900	0.724700	0.479100
C4041	C404	0.254200	0.666700	0.481400
C4051	C405	0.276900	0.636000	0.454100
H2601	H260	0.288500	0.609600	0.467200
C4061	C406	0.283100	0.643000	0.407600
H2611	H261	0.299000	0.621500	0.390500
C4071	C407	0.252900	0.690800	0.562200
H2621	H262	0.258000	0.720000	0.550800
C4081	C408	0.249400	0.655800	0.530300
C4091	C409	0.245000	0.612700	0.547800
H2631	H263	0.244300	0.587800	0.528200
C4101	C410	0.241700	0.605700	0.593900
C4111	C411	0.244600	0.642500	0.622800
H2641	H264	0.242800	0.637300	0.654000
C4121	C412	0.224300	0.421900	0.666400
C4131	C413	0.228200	0.470800	0.648700
C4141	C414	0.210500	0.508700	0.672000
H2651	H265	0.195900	0.504500	0.699900
C4151	C415	0.214600	0.551600	0.654400
H2661	H266	0.202500	0.576200	0.670400
C4161	C416	0.236300	0.559200	0.613600
C4171	C417	0.255100	0.523400	0.590500
H2671	H267	0.272000	0.528300	0.564100
C4181	C418	0.248500	0.478800	0.607600
H2681	H268	0.258200	0.454100	0.590200
Yb271	Yb27	0.254630	0.682930	0.144330
N231	N23	0.250200	0.313200	0.107600
O1151	O115	0.249900	0.280200	0.819400
O1161	O116	0.207500	0.342600	0.815210
O1171	O117	0.256100	0.608050	0.143660
O1181	O118	0.296700	0.582110	0.203300
O1191	O119	0.251000	0.675260	0.223260
H2691	H269	0.227900	0.660000	0.232100
C4191	C419	0.237200	0.316200	0.840700
C4201	C420	0.233600	0.319500	0.887200
C4211	C421	0.257400	0.288000	0.914100
H2701	H270	0.268900	0.261600	0.900800
C4221	C422	0.264200	0.295800	0.961800
H2711	H271	0.281100	0.275300	0.979100
C4231	C423	0.245800	0.333300	0.981400
C4241	C424	0.223100	0.364000	0.954100
H2721	H272	0.211500	0.390400	0.967200
C4251	C425	0.216900	0.357000	0.907600
H2731	H273	0.201000	0.378500	0.890500
C4261	C426	0.247100	0.309200	0.062200
H2741	H274	0.242000	0.280000	0.050800
C4271	C427	0.250600	0.344200	0.030300
C4281	C428	0.255000	0.387300	0.047800
H2751	H275	0.255700	0.412200	0.028200
C4291	C429	0.258300	0.394300	0.093900
C4301	C430	0.255400	0.357500	0.122800
H2761	H276	0.257200	0.362700	0.154000
C4311	C431	0.275700	0.578100	0.166400
C4321	C432	0.271800	0.529200	0.148700
C4331	C433	0.289500	0.491300	0.172000
H2771	H277	0.304100	0.495500	0.199900
C4341	C434	0.285400	0.448400	0.154400
H2781	H278	0.297500	0.423800	0.170400
C4351	C435	0.263700	0.440800	0.113600
C4361	C436	0.244900	0.476600	0.090500
H2791	H279	0.228000	0.471700	0.064100
C4371	C437	0.251500	0.521200	0.107600
H2801	H280	0.241800	0.545900	0.090200
Yb281	Yb28	0.745370	0.182930	0.355670
N241	N24	0.749800	0.813200	0.392400
O1201	O120	0.750100	0.780200	0.680600
O1211	O121	0.792500	0.842600	0.684790
O1221	O122	0.743900	0.108050	0.356340
O1231	O123	0.703300	0.082110	0.296700
O1241	O124	0.749000	0.175260	0.276740
H2811	H281	0.772100	0.160000	0.267900
C4381	C438	0.762800	0.816200	0.659300
C4391	C439	0.766400	0.819500	0.612800
C4401	C440	0.742600	0.788000	0.585900
H2821	H282	0.731100	0.761600	0.599200
C4411	C441	0.735800	0.795800	0.538200
H2831	H283	0.718900	0.775300	0.520900
C4421	C442	0.754200	0.833300	0.518600
C4431	C443	0.776900	0.864000	0.545900
H2841	H284	0.788500	0.890400	0.532800
C4441	C444	0.783100	0.857000	0.592400
H2851	H285	0.799000	0.878500	0.609500
C4451	C445	0.752900	0.809200	0.437800
H2861	H286	0.758000	0.780000	0.449200
C4461	C446	0.749400	0.844200	0.469700
C4471	C447	0.745000	0.887300	0.452200
H2871	H287	0.744300	0.912200	0.471800
C4481	C448	0.741700	0.894300	0.406100
C4491	C449	0.744600	0.857500	0.377200
H2881	H288	0.742800	0.862700	0.346000
C4501	C450	0.724300	0.078100	0.333600
C4511	C451	0.728200	0.029200	0.351300
C4521	C452	0.710500	0.991300	0.328000
H2891	H289	0.695900	0.995500	0.300100
C4531	C453	0.714600	0.948400	0.345600
H2901	H290	0.702500	0.923800	0.329600
C4541	C454	0.736300	0.940800	0.386400
C4551	C455	0.755100	0.976600	0.409500
H2911	H291	0.772000	0.971700	0.435900
C4561	C456	0.748500	0.021200	0.392400
H2921	H292	0.758200	0.045900	0.409800
Yb291	Yb29	0.250460	0.749540	0.249540
Yb301	Yb30	0.249540	0.250460	0.749540
Yb311	Yb31	0.749540	0.249540	0.250460
Yb321	Yb32	0.750460	0.750460	0.750460
O1251	O125	0.827430	0.827430	0.827430
H2931	H293	0.844130	0.844130	0.844130
O1261	O126	0.672570	0.172570	0.327430
H2941	H294	0.655870	0.155870	0.344130
O1271	O127	0.172570	0.327430	0.672570
H2951	H295	0.155870	0.344130	0.655870
O1281	O128	0.327430	0.672570	0.172570
H2961	H296	0.344130	0.655870	0.155870
