data_ACUBAB_clean_PM
_symmetry_space_group_name_H-M	'P1'
_cell_length_a	8.877500
_cell_length_b	8.877500
_cell_length_c	23.775000
_cell_angle_alpha	90.000000
_cell_angle_beta	90.000000
_cell_angle_gamma	119.999998
_symmetry_Int_Tables_number 1

loop_
_symmetry_equiv_pos_as_xyz
'x,y,z'

loop_
_atom_site_label
_atom_site_type_symbol
_atom_site_fract_x
_atom_site_fract_y
_atom_site_fract_z
_atom_site_charge
Zn1	Zn	0.960020	0.293290	0.455920	1.229480
Zn2	Zn	0.333270	0.039980	0.455920	1.229480
Zn3	Zn	0.706710	0.666730	0.455920	1.229480
Zn4	Zn	0.333270	0.293290	0.044080	1.229480
Zn5	Zn	0.706710	0.039980	0.044080	1.229480
Zn6	Zn	0.960020	0.666730	0.044080	1.229480
Zn7	Zn	0.039980	0.706710	0.544080	1.229480
Zn8	Zn	0.666730	0.960020	0.544080	1.229480
Zn9	Zn	0.293290	0.333270	0.544080	1.229480
Zn10	Zn	0.666730	0.706710	0.955920	1.229480
Zn11	Zn	0.293290	0.960020	0.955920	1.229480
Zn12	Zn	0.039980	0.333270	0.955920	1.229480
Zn13	Zn	0.333330	0.666660	0.350620	1.134373
Zn14	Zn	0.333330	0.666660	0.149380	1.134373
Zn15	Zn	0.666670	0.333340	0.649380	1.134373
Zn16	Zn	0.666670	0.333340	0.850620	1.134373
P1	P	0.035310	0.680920	0.417250	1.625007
P2	P	0.645610	0.964690	0.417250	1.625007
P3	P	0.319080	0.354390	0.417250	1.625007
P4	P	0.645610	0.680920	0.082750	1.625007
P5	P	0.319080	0.964690	0.082750	1.625007
P6	P	0.035310	0.354390	0.082750	1.625007
P7	P	0.964690	0.319080	0.582750	1.625007
P8	P	0.354390	0.035310	0.582750	1.625007
P9	P	0.680920	0.645610	0.582750	1.625007
P10	P	0.354390	0.319080	0.917250	1.625007
P11	P	0.680920	0.035310	0.917250	1.625007
P12	P	0.964690	0.645610	0.917250	1.625007
Cl1	Cl	0.333330	0.666660	0.250000	-0.403471
Cl2	Cl	0.666670	0.333340	0.750000	-0.403471
O1	O	0.949500	0.493100	0.434370	-0.767256
O2	O	0.145000	0.795700	0.468140	-0.909082
O3	O	0.896800	0.729100	0.403390	-0.767256
O4	O	0.157600	0.726400	0.366860	-0.721774
O5	O	0.543600	0.050500	0.434370	-0.767256
O6	O	0.650700	0.855000	0.468140	-0.909082
O7	O	0.832300	0.103200	0.403390	-0.767256
O8	O	0.568800	0.842400	0.366860	-0.721774
O9	O	0.506900	0.456400	0.434370	-0.767256
O10	O	0.204300	0.349300	0.468140	-0.909082
O11	O	0.270900	0.167700	0.403390	-0.767256
O12	O	0.273600	0.431200	0.366860	-0.721774
O13	O	0.543600	0.493100	0.065630	-0.767256
O14	O	0.650700	0.795700	0.031860	-0.909082
O15	O	0.832300	0.729100	0.096610	-0.767256
O16	O	0.568800	0.726400	0.133140	-0.721774
O17	O	0.506900	0.050500	0.065630	-0.767256
O18	O	0.204300	0.855000	0.031860	-0.909082
O19	O	0.270900	0.103200	0.096610	-0.767256
O20	O	0.273600	0.842400	0.133140	-0.721774
O21	O	0.949500	0.456400	0.065630	-0.767256
O22	O	0.145000	0.349300	0.031860	-0.909082
O23	O	0.896800	0.167700	0.096610	-0.767256
O24	O	0.157600	0.431200	0.133140	-0.721774
O25	O	0.050500	0.506900	0.565630	-0.767256
O26	O	0.855000	0.204300	0.531860	-0.909082
O27	O	0.103200	0.270900	0.596610	-0.767256
O28	O	0.842400	0.273600	0.633140	-0.721774
O29	O	0.456400	0.949500	0.565630	-0.767256
O30	O	0.349300	0.145000	0.531860	-0.909082
O31	O	0.167700	0.896800	0.596610	-0.767256
O32	O	0.431200	0.157600	0.633140	-0.721774
O33	O	0.493100	0.543600	0.565630	-0.767256
O34	O	0.795700	0.650700	0.531860	-0.909082
O35	O	0.729100	0.832300	0.596610	-0.767256
O36	O	0.726400	0.568800	0.633140	-0.721774
O37	O	0.456400	0.506900	0.934370	-0.767256
O38	O	0.349300	0.204300	0.968140	-0.909082
O39	O	0.167700	0.270900	0.903390	-0.767256
O40	O	0.431200	0.273600	0.866860	-0.721774
O41	O	0.493100	0.949500	0.934370	-0.767256
O42	O	0.795700	0.145000	0.968140	-0.909082
O43	O	0.729100	0.896800	0.903390	-0.767256
O44	O	0.726400	0.157600	0.866860	-0.721774
O45	O	0.050500	0.543600	0.934370	-0.767256
O46	O	0.855000	0.650700	0.968140	-0.909082
O47	O	0.103200	0.832300	0.903390	-0.767256
O48	O	0.842400	0.568800	0.866860	-0.721774
