data_ADABUE_clean_PM
_symmetry_space_group_name_H-M	'P1'
_cell_length_a	9.274100
_cell_length_b	9.389900
_cell_length_c	15.056673
_cell_angle_alpha	108.168684
_cell_angle_beta	92.524403
_cell_angle_gamma	90.000000
_symmetry_Int_Tables_number 1

loop_
_symmetry_equiv_pos_as_xyz
'x,y,z'

loop_
_atom_site_label
_atom_site_type_symbol
_atom_site_fract_x
_atom_site_fract_y
_atom_site_fract_z
_atom_site_charge
Cu1	Cu	0.879960	0.023130	0.384920	0.554920
Cu2	Cu	0.620040	0.638210	0.615080	0.554920
Cu3	Cu	0.120040	0.976870	0.615080	0.554920
Cu4	Cu	0.379960	0.361790	0.384920	0.554920
H1	H	0.143100	0.549600	0.254000	0.134075
H2	H	0.035600	0.734700	0.366400	0.079968
H3	H	0.043400	0.771600	0.070200	0.134075
H4	H	0.930700	0.948000	0.188000	0.079968
H5	H	0.108300	0.439200	0.042600	0.102608
H6	H	0.254400	0.471300	0.104000	0.102608
H7	H	0.322400	0.645200	0.030400	0.076859
H8	H	0.356900	0.295600	0.746000	0.134075
H9	H	0.464400	0.368300	0.633600	0.079968
H10	H	0.456600	0.701400	0.929800	0.134075
H11	H	0.569300	0.760000	0.812000	0.079968
H12	H	0.391700	0.396600	0.957400	0.102608
H13	H	0.245600	0.367300	0.896000	0.102608
H14	H	0.177600	0.614800	0.969600	0.076859
H15	H	0.856900	0.450400	0.746000	0.134075
H16	H	0.964400	0.265300	0.633600	0.079968
H17	H	0.956600	0.228400	0.929800	0.134075
H18	H	0.069300	0.052000	0.812000	0.079968
H19	H	0.891700	0.560800	0.957400	0.102608
H20	H	0.745600	0.528700	0.896000	0.102608
H21	H	0.677600	0.354800	0.969600	0.076859
H22	H	0.643100	0.704400	0.254000	0.134075
H23	H	0.535600	0.631700	0.366400	0.079968
H24	H	0.543400	0.298600	0.070200	0.134075
H25	H	0.430700	0.240000	0.188000	0.079968
H26	H	0.608300	0.603400	0.042600	0.102608
H27	H	0.754400	0.632700	0.104000	0.102608
H28	H	0.822400	0.385200	0.030400	0.076859
C1	C	0.102200	0.631100	0.238800	-0.216765
C2	C	0.036800	0.741600	0.305400	0.176812
C3	C	0.042600	0.761100	0.130200	-0.216765
C4	C	0.108400	0.638800	0.147800	0.155408
C5	C	0.976200	0.867200	0.201400	0.176812
C6	C	0.180400	0.517100	0.073600	-0.189813
C7	C	0.140400	0.205100	0.406400	0.139015
C8	C	0.099200	0.256800	0.324400	0.554206
C9	C	0.397800	0.392300	0.761200	-0.216765
C10	C	0.463200	0.436200	0.694600	0.176812
C11	C	0.457400	0.630900	0.869800	-0.216765
C12	C	0.391600	0.491000	0.852200	0.155408
C13	C	0.523800	0.665800	0.798600	0.176812
C14	C	0.319600	0.443500	0.926400	-0.189813
C15	C	0.359600	0.798700	0.593600	0.139015
C16	C	0.400800	0.932400	0.675600	0.554206
C17	C	0.897800	0.368900	0.761200	-0.216765
C18	C	0.963200	0.258400	0.694600	0.176812
C19	C	0.957400	0.238900	0.869800	-0.216765
C20	C	0.891600	0.361200	0.852200	0.155408
C21	C	0.023800	0.132800	0.798600	0.176812
C22	C	0.819600	0.482900	0.926400	-0.189813
C23	C	0.859600	0.794900	0.593600	0.139015
C24	C	0.900800	0.743200	0.675600	0.554206
C25	C	0.602200	0.607700	0.238800	-0.216765
C26	C	0.536800	0.563800	0.305400	0.176812
C27	C	0.542600	0.369100	0.130200	-0.216765
C28	C	0.608400	0.509000	0.147800	0.155408
C29	C	0.476200	0.334200	0.201400	0.176812
C30	C	0.680400	0.556500	0.073600	-0.189813
C31	C	0.640400	0.201300	0.406400	0.139015
C32	C	0.599200	0.067600	0.324400	0.554206
C33	C	0.250000	0.569100	0.000000	-0.074630
C34	C	0.750000	0.430900	0.000000	-0.074630
N1	N	0.974000	0.859770	0.288540	-0.284250
N2	N	0.072300	0.115480	0.443160	-0.191014
N3	N	0.159200	0.101130	0.512460	0.000465
N4	N	0.279700	0.179050	0.517100	-0.115595
N5	N	0.269000	0.245070	0.449940	-0.152991
N6	N	0.526000	0.571230	0.711460	-0.284250
N7	N	0.427700	0.672320	0.556840	-0.191014
N8	N	0.340800	0.588670	0.487540	0.000465
N9	N	0.220300	0.661950	0.482900	-0.115595
N10	N	0.231000	0.795130	0.550060	-0.152991
N11	N	0.026000	0.140230	0.711460	-0.284250
N12	N	0.927700	0.884520	0.556840	-0.191014
N13	N	0.840800	0.898870	0.487540	0.000465
N14	N	0.720300	0.820950	0.482900	-0.115595
N15	N	0.731000	0.754930	0.550060	-0.152991
N16	N	0.474000	0.428770	0.288540	-0.284250
N17	N	0.572300	0.327680	0.443160	-0.191014
N18	N	0.659200	0.411330	0.512460	0.000465
N19	N	0.779700	0.338050	0.517100	-0.115595
N20	N	0.769000	0.204870	0.449940	-0.152991
O1	O	0.198300	0.334300	0.305400	-0.522734
O2	O	0.979600	0.222220	0.285040	-0.540556
O3	O	0.301700	0.028900	0.694600	-0.522734
O4	O	0.520400	0.937180	0.714960	-0.540556
O5	O	0.801700	0.665700	0.694600	-0.522734
O6	O	0.020400	0.777780	0.714960	-0.540556
O7	O	0.698300	0.971100	0.305400	-0.522734
O8	O	0.479600	0.062820	0.285040	-0.540556
