data_ADEGIA_clean_PM
_symmetry_space_group_name_H-M	'P1'
_cell_length_a	8.606600
_cell_length_b	10.156000
_cell_length_c	11.161000
_cell_angle_alpha	65.260003
_cell_angle_beta	71.760000
_cell_angle_gamma	78.680000
_symmetry_Int_Tables_number 1

loop_
_symmetry_equiv_pos_as_xyz
'x,y,z'

loop_
_atom_site_label
_atom_site_type_symbol
_atom_site_fract_x
_atom_site_fract_y
_atom_site_fract_z
_atom_site_charge
Gd1	Gd	0.868140	0.560250	0.346710	2.168454
Gd2	Gd	0.131860	0.439750	0.653290	2.168454
H1	H	0.928700	0.781400	0.681100	0.105567
H2	H	0.016700	0.027400	0.280300	0.105567
H3	H	0.365300	0.884900	0.227300	0.105567
H4	H	0.771300	0.931200	0.918900	0.105567
H5	H	0.457500	0.645100	0.122300	0.105567
H6	H	0.284000	0.383400	0.014800	0.105567
H7	H	0.071300	0.218600	0.318900	0.105567
H8	H	0.983300	0.972600	0.719700	0.105567
H9	H	0.634700	0.115100	0.772700	0.105567
H10	H	0.228700	0.068800	0.081100	0.105567
H11	H	0.542500	0.354900	0.877700	0.105567
H12	H	0.716000	0.616600	0.985200	0.105567
C1	C	0.931600	0.765200	0.447400	0.749768
C2	C	0.967400	0.885600	0.476400	-0.135275
C3	C	0.957200	0.868800	0.608500	-0.052871
C4	C	0.010000	0.016400	0.368700	-0.052871
C5	C	0.674600	0.768000	0.180100	0.772251
C6	C	0.582600	0.889000	0.088900	-0.133017
C7	C	0.419900	0.930900	0.136000	-0.053671
C8	C	0.662000	0.958900	0.951800	-0.053671
C9	C	0.178900	0.538900	0.169100	0.772251
C10	C	0.345200	0.517700	0.082400	-0.133017
C11	C	0.474700	0.586700	0.073000	-0.053671
C12	C	0.370400	0.430200	0.009000	-0.053671
C13	C	0.068400	0.234800	0.552600	0.749768
C14	C	0.032600	0.114400	0.523600	-0.135275
C15	C	0.042800	0.131200	0.391500	-0.052871
C16	C	0.990000	0.983600	0.631300	-0.052871
C17	C	0.325400	0.232000	0.819900	0.772251
C18	C	0.417400	0.111000	0.911100	-0.133017
C19	C	0.580100	0.069100	0.864000	-0.053671
C20	C	0.338000	0.041100	0.048200	-0.053671
C21	C	0.821100	0.461100	0.830900	0.772251
C22	C	0.654800	0.482300	0.917600	-0.133017
C23	C	0.525300	0.413300	0.927000	-0.053671
C24	C	0.629600	0.569800	0.991000	-0.053671
O1	O	0.963800	0.633540	0.519440	-0.839547
O2	O	0.868900	0.797810	0.350900	-0.644176
O3	O	0.602200	0.700400	0.304520	-0.722667
O4	O	0.821700	0.735000	0.131050	-0.722667
O5	O	0.156900	0.618940	0.235840	-0.722667
O6	O	0.063100	0.476630	0.174990	-0.722667
O7	O	0.036200	0.366460	0.480560	-0.839547
O8	O	0.131100	0.202190	0.649100	-0.644176
O9	O	0.397800	0.299600	0.695480	-0.722667
O10	O	0.178300	0.265000	0.868950	-0.722667
O11	O	0.843100	0.381060	0.764160	-0.722667
O12	O	0.936900	0.523370	0.825010	-0.722667
