data_AGESIP_clean_PM
_symmetry_space_group_name_H-M	'P1'
_cell_length_a	5.643700
_cell_length_b	9.150700
_cell_length_c	12.835700
_cell_angle_alpha	90.000000
_cell_angle_beta	90.000000
_cell_angle_gamma	95.892002
_symmetry_Int_Tables_number 1

loop_
_symmetry_equiv_pos_as_xyz
'x,y,z'

loop_
_atom_site_label
_atom_site_type_symbol
_atom_site_fract_x
_atom_site_fract_y
_atom_site_fract_z
_atom_site_charge
Cu1	Cu	0.012360	0.539360	0.111720	0.948713
Cu2	Cu	0.987640	0.960640	0.611720	0.948713
Cu3	Cu	0.987640	0.460640	0.888280	0.948713
Cu4	Cu	0.012360	0.039360	0.388280	0.948713
Cu5	Cu	0.500000	0.000000	0.500000	0.948713
Cu6	Cu	0.500000	0.500000	0.000000	0.948713
H1	H	0.777000	0.839000	0.467000	0.433105
H2	H	0.223000	0.661000	0.967000	0.433105
H3	H	0.223000	0.161000	0.533000	0.433105
H4	H	0.777000	0.339000	0.033000	0.433105
C1	C	0.366700	0.758600	0.211430	0.217431
C2	C	0.460000	0.860500	0.291590	0.218604
C3	C	0.693900	0.874800	0.242920	0.217431
C4	C	0.605100	0.767400	0.162480	0.221448
C5	C	0.633300	0.741400	0.711430	0.217431
C6	C	0.540000	0.639500	0.791590	0.218604
C7	C	0.306100	0.625200	0.742920	0.217431
C8	C	0.394900	0.732600	0.662480	0.221448
C9	C	0.633300	0.241400	0.788570	0.217431
C10	C	0.540000	0.139500	0.708410	0.218604
C11	C	0.306100	0.125200	0.757080	0.217431
C12	C	0.394900	0.232600	0.837520	0.221448
C13	C	0.366700	0.258600	0.288570	0.217431
C14	C	0.460000	0.360500	0.208410	0.218604
C15	C	0.693900	0.374800	0.257080	0.217431
C16	C	0.605100	0.267400	0.337520	0.221448
O1	O	0.163500	0.694600	0.197920	-0.460854
O2	O	0.362000	0.909400	0.371970	-0.464418
O3	O	0.891600	0.947900	0.259120	-0.460854
O4	O	0.695200	0.706900	0.087090	-0.327220
O5	O	0.805900	0.915820	0.482900	-1.017744
O6	O	0.836500	0.805400	0.697920	-0.460854
O7	O	0.638000	0.590600	0.871970	-0.464418
O8	O	0.108400	0.552100	0.759120	-0.460854
O9	O	0.304800	0.793100	0.587090	-0.327220
O10	O	0.194100	0.584180	0.982900	-1.017744
O11	O	0.836500	0.305400	0.802080	-0.460854
O12	O	0.638000	0.090600	0.628030	-0.464418
O13	O	0.108400	0.052100	0.740880	-0.460854
O14	O	0.304800	0.293100	0.912910	-0.327220
O15	O	0.194100	0.084180	0.517100	-1.017744
O16	O	0.163500	0.194600	0.302080	-0.460854
O17	O	0.362000	0.409400	0.128030	-0.464418
O18	O	0.891600	0.447900	0.240880	-0.460854
O19	O	0.695200	0.206900	0.412910	-0.327220
O20	O	0.805900	0.415820	0.017100	-1.017744
