data_AJAYIT_clean_PM
_symmetry_space_group_name_H-M	'P1'
_cell_length_a	13.316900
_cell_length_b	13.316900
_cell_length_c	14.297000
_cell_angle_alpha	90.000000
_cell_angle_beta	90.000000
_cell_angle_gamma	119.999999
_symmetry_Int_Tables_number 1

loop_
_symmetry_equiv_pos_as_xyz
'x,y,z'

loop_
_atom_site_label
_atom_site_type_symbol
_atom_site_fract_x
_atom_site_fract_y
_atom_site_fract_z
_atom_site_charge
Er1	Er	0.333330	0.666660	0.845680	1.130503
Er2	Er	0.333330	0.666660	0.345680	1.130503
Er3	Er	0.666670	0.333340	0.180540	1.130503
Er4	Er	0.666670	0.333340	0.680540	1.130503
Cu1	Cu	0.000500	0.500200	0.013300	0.750410
Cu2	Cu	0.499700	0.999500	0.013300	0.750410
Cu3	Cu	0.499800	0.500300	0.013300	0.750410
Cu4	Cu	0.499700	0.500200	0.513300	0.750410
Cu5	Cu	0.499800	0.999500	0.513300	0.750410
Cu6	Cu	0.000500	0.500300	0.513300	0.750410
H1	H	0.018800	0.669100	0.935700	0.255303
H2	H	0.973600	0.323900	0.093400	0.255303
H3	H	0.922000	0.609200	0.822900	0.133493
H4	H	0.810100	0.548400	0.885400	0.133493
H5	H	0.097500	0.406900	0.211500	0.133493
H6	H	0.200900	0.471000	0.141600	0.133493
H7	H	0.958100	0.701300	0.061900	0.133237
H8	H	0.858300	0.675400	0.991500	0.133237
H9	H	0.038200	0.290500	0.959100	0.133237
H10	H	0.135300	0.312100	0.032400	0.133237
H11	H	0.650300	0.981200	0.935700	0.255303
H12	H	0.350300	0.026400	0.093400	0.255303
H13	H	0.687200	0.078000	0.822900	0.133493
H14	H	0.738300	0.189900	0.885400	0.133493
H15	H	0.309400	0.902500	0.211500	0.133493
H16	H	0.270100	0.799100	0.141600	0.133493
H17	H	0.743200	0.041900	0.061900	0.133237
H18	H	0.817100	0.141700	0.991500	0.133237
H19	H	0.252300	0.961800	0.959100	0.133237
H20	H	0.176800	0.864700	0.032400	0.133237
H21	H	0.330900	0.349700	0.935700	0.255303
H22	H	0.676100	0.649700	0.093400	0.255303
H23	H	0.390800	0.312800	0.822900	0.133493
H24	H	0.451600	0.261700	0.885400	0.133493
H25	H	0.593100	0.690600	0.211500	0.133493
H26	H	0.529000	0.729900	0.141600	0.133493
H27	H	0.298700	0.256800	0.061900	0.133237
H28	H	0.324600	0.182900	0.991500	0.133237
H29	H	0.709500	0.747700	0.959100	0.133237
H30	H	0.687900	0.823200	0.032400	0.133237
H31	H	0.650300	0.669100	0.435700	0.255303
H32	H	0.350300	0.323900	0.593400	0.255303
H33	H	0.687200	0.609200	0.322900	0.133493
H34	H	0.738300	0.548400	0.385400	0.133493
H35	H	0.309400	0.406900	0.711500	0.133493
H36	H	0.270100	0.471000	0.641600	0.133493
H37	H	0.743200	0.701300	0.561900	0.133237
H38	H	0.817100	0.675400	0.491500	0.133237
H39	H	0.252300	0.290500	0.459100	0.133237
H40	H	0.176800	0.312100	0.532400	0.133237
H41	H	0.330900	0.981200	0.435700	0.255303
H42	H	0.676100	0.026400	0.593400	0.255303
H43	H	0.390800	0.078000	0.322900	0.133493
H44	H	0.451600	0.189900	0.385400	0.133493
H45	H	0.593100	0.902500	0.711500	0.133493
H46	H	0.529000	0.799100	0.641600	0.133493
H47	H	0.298700	0.041900	0.561900	0.133237
H48	H	0.324600	0.141700	0.491500	0.133237
H49	H	0.709500	0.961800	0.459100	0.133237
H50	H	0.687900	0.864700	0.532400	0.133237
H51	H	0.018800	0.349700	0.435700	0.255303
H52	H	0.973600	0.649700	0.593400	0.255303
H53	H	0.922000	0.312800	0.322900	0.133493
H54	H	0.810100	0.261700	0.385400	0.133493
H55	H	0.097500	0.690600	0.711500	0.133493
H56	H	0.200900	0.729900	0.641600	0.133493
H57	H	0.958100	0.256800	0.561900	0.133237
H58	H	0.858300	0.182900	0.491500	0.133237
H59	H	0.038200	0.747700	0.459100	0.133237
H60	H	0.135300	0.823200	0.532400	0.133237
C1	C	0.129700	0.564000	0.178500	0.669390
C2	C	0.874300	0.436200	0.853900	0.669390
C3	C	0.886300	0.557500	0.875700	-0.174554
C4	C	0.123500	0.455900	0.156400	-0.174554
C5	C	0.897700	0.641000	0.024000	-0.169331
C6	C	0.095600	0.347000	0.001300	-0.169331
C7	C	0.187200	0.462100	0.944500	0.671468
C8	C	0.814800	0.552000	0.086300	0.671468
C9	C	0.434300	0.870300	0.178500	0.669390
C10	C	0.561900	0.125700	0.853900	0.669390
C11	C	0.671200	0.113700	0.875700	-0.174554
C12	C	0.332400	0.876500	0.156400	-0.174554
C13	C	0.743300	0.102300	0.024000	-0.169331
C14	C	0.251400	0.904400	0.001300	-0.169331
C15	C	0.274900	0.812800	0.944500	0.671468
C16	C	0.737200	0.185200	0.086300	0.671468
C17	C	0.436000	0.565700	0.178500	0.669390
C18	C	0.563800	0.438100	0.853900	0.669390
C19	C	0.442500	0.328800	0.875700	-0.174554
C20	C	0.544100	0.667600	0.156400	-0.174554
C21	C	0.359000	0.256700	0.024000	-0.169331
C22	C	0.653000	0.748600	0.001300	-0.169331
C23	C	0.537900	0.725100	0.944500	0.671468
C24	C	0.448000	0.262800	0.086300	0.671468
C25	C	0.434300	0.564000	0.678500	0.669390
C26	C	0.561900	0.436200	0.353900	0.669390
C27	C	0.671200	0.557500	0.375700	-0.174554
C28	C	0.332400	0.455900	0.656400	-0.174554
C29	C	0.743300	0.641000	0.524000	-0.169331
C30	C	0.251400	0.347000	0.501300	-0.169331
C31	C	0.274900	0.462100	0.444500	0.671468
C32	C	0.737200	0.552000	0.586300	0.671468
C33	C	0.436000	0.870300	0.678500	0.669390
C34	C	0.563800	0.125700	0.353900	0.669390
C35	C	0.442500	0.113700	0.375700	-0.174554
C36	C	0.544100	0.876500	0.656400	-0.174554
C37	C	0.359000	0.102300	0.524000	-0.169331
C38	C	0.653000	0.904400	0.501300	-0.169331
C39	C	0.537900	0.812800	0.444500	0.671468
C40	C	0.448000	0.185200	0.586300	0.671468
C41	C	0.129700	0.565700	0.678500	0.669390
C42	C	0.874300	0.438100	0.353900	0.669390
C43	C	0.886300	0.328800	0.375700	-0.174554
C44	C	0.123500	0.667600	0.656400	-0.174554
C45	C	0.897700	0.256700	0.524000	-0.169331
C46	C	0.095600	0.748600	0.501300	-0.169331
C47	C	0.187200	0.725100	0.444500	0.671468
C48	C	0.814800	0.262800	0.586300	0.671468
N1	N	0.952800	0.604400	0.954200	-0.266103
N2	N	0.039300	0.386100	0.071200	-0.266103
N3	N	0.651600	0.047200	0.954200	-0.266103
N4	N	0.346800	0.960700	0.071200	-0.266103
N5	N	0.395600	0.348400	0.954200	-0.266103
N6	N	0.613900	0.653200	0.071200	-0.266103
N7	N	0.651600	0.604400	0.454200	-0.266103
N8	N	0.346800	0.386100	0.571200	-0.266103
N9	N	0.395600	0.047200	0.454200	-0.266103
N10	N	0.613900	0.960700	0.571200	-0.266103
N11	N	0.952800	0.348400	0.454200	-0.266103
N12	N	0.039300	0.653200	0.571200	-0.266103
O1	O	0.190600	0.555800	0.955000	-0.574375
O2	O	0.076100	0.598300	0.123600	-0.549309
O3	O	0.811300	0.455900	0.074600	-0.574375
O4	O	0.928200	0.402400	0.906100	-0.549309
O5	O	0.252400	0.446200	0.884300	-0.574375
O6	O	0.758900	0.568000	0.141100	-0.574375
O7	O	0.814800	0.376900	0.784400	-0.573614
O8	O	0.185300	0.615900	0.245400	-0.573614
O9	O	0.365200	0.809400	0.955000	-0.574375
O10	O	0.522200	0.923900	0.123600	-0.549309
O11	O	0.644600	0.188700	0.074600	-0.574375
O12	O	0.474200	0.071800	0.906100	-0.549309
O13	O	0.193800	0.747600	0.884300	-0.574375
O14	O	0.809100	0.241100	0.141100	-0.574375
O15	O	0.562100	0.185200	0.784400	-0.573614
O16	O	0.430600	0.814700	0.245400	-0.573614
O17	O	0.444200	0.634800	0.955000	-0.574375
O18	O	0.401700	0.477800	0.123600	-0.549309
O19	O	0.544100	0.355400	0.074600	-0.574375
O20	O	0.597600	0.525800	0.906100	-0.549309
O21	O	0.553800	0.806200	0.884300	-0.574375
O22	O	0.432000	0.190900	0.141100	-0.574375
O23	O	0.623100	0.437900	0.784400	-0.573614
O24	O	0.384100	0.569400	0.245400	-0.573614
O25	O	0.365200	0.555800	0.455000	-0.574375
O26	O	0.522200	0.598300	0.623600	-0.549309
O27	O	0.644600	0.455900	0.574600	-0.574375
O28	O	0.474200	0.402400	0.406100	-0.549309
O29	O	0.193800	0.446200	0.384300	-0.574375
O30	O	0.809100	0.568000	0.641100	-0.574375
O31	O	0.562100	0.376900	0.284400	-0.573614
O32	O	0.430600	0.615900	0.745400	-0.573614
O33	O	0.444200	0.809400	0.455000	-0.574375
O34	O	0.401700	0.923900	0.623600	-0.549309
O35	O	0.544100	0.188700	0.574600	-0.574375
O36	O	0.597600	0.071800	0.406100	-0.549309
O37	O	0.553800	0.747600	0.384300	-0.574375
O38	O	0.432000	0.241100	0.641100	-0.574375
O39	O	0.623100	0.185200	0.284400	-0.573614
O40	O	0.384100	0.814700	0.745400	-0.573614
O41	O	0.190600	0.634800	0.455000	-0.574375
O42	O	0.076100	0.477800	0.623600	-0.549309
O43	O	0.811300	0.355400	0.574600	-0.574375
O44	O	0.928200	0.525800	0.406100	-0.549309
O45	O	0.252400	0.806200	0.384300	-0.574375
O46	O	0.758900	0.190900	0.641100	-0.574375
O47	O	0.814800	0.437900	0.284400	-0.573614
O48	O	0.185300	0.569400	0.745400	-0.573614
