data_ANUGIA_clean_PM
_symmetry_space_group_name_H-M	'P1'
_cell_length_a	17.583800
_cell_length_b	17.583800
_cell_length_c	17.583800
_cell_angle_alpha	96.829900
_cell_angle_beta	96.829900
_cell_angle_gamma	96.829899
_symmetry_Int_Tables_number 1

loop_
_symmetry_equiv_pos_as_xyz
'x,y,z'

loop_
_atom_site_label
_atom_site_type_symbol
_atom_site_fract_x
_atom_site_fract_y
_atom_site_fract_z
_atom_site_charge
Cu1	Cu	0.307170	0.904660	0.904660	0.882910
Cu2	Cu	0.904660	0.307170	0.904660	0.882910
Cu3	Cu	0.904660	0.904660	0.307170	0.882910
Cu4	Cu	0.851780	0.163170	0.851780	0.882910
Cu5	Cu	0.851780	0.851780	0.163170	0.882910
Cu6	Cu	0.163170	0.851780	0.851780	0.882910
H1	H	0.213100	0.488100	0.838400	0.107937
H2	H	0.183600	0.608600	0.830200	0.102782
H3	H	0.425400	0.567500	0.927100	0.107937
H4	H	0.395300	0.692000	0.927200	0.102782
H5	H	0.235300	0.386500	0.896500	0.116344
H6	H	0.147100	0.298000	0.888100	0.109781
H7	H	0.838400	0.213100	0.488100	0.107937
H8	H	0.830200	0.183600	0.608600	0.102782
H9	H	0.927100	0.425400	0.567500	0.107937
H10	H	0.927200	0.395300	0.692000	0.102782
H11	H	0.896500	0.235300	0.386500	0.116344
H12	H	0.888100	0.147100	0.298000	0.109781
H13	H	0.488100	0.838400	0.213100	0.107937
H14	H	0.608600	0.830200	0.183600	0.102782
H15	H	0.567500	0.927100	0.425400	0.107937
H16	H	0.692000	0.927200	0.395300	0.102782
H17	H	0.386500	0.896500	0.235300	0.116344
H18	H	0.298000	0.888100	0.147100	0.109781
H19	H	0.488100	0.213100	0.838400	0.107937
H20	H	0.608600	0.183600	0.830200	0.102782
H21	H	0.567500	0.425400	0.927100	0.107937
H22	H	0.692000	0.395300	0.927200	0.102782
H23	H	0.386500	0.235300	0.896500	0.116344
H24	H	0.298000	0.147100	0.888100	0.109781
H25	H	0.213100	0.838400	0.488100	0.107937
H26	H	0.183600	0.830200	0.608600	0.102782
H27	H	0.425400	0.927100	0.567500	0.107937
H28	H	0.395300	0.927200	0.692000	0.102782
H29	H	0.235300	0.896500	0.386500	0.116344
H30	H	0.147100	0.888100	0.298000	0.109781
H31	H	0.838400	0.488100	0.213100	0.107937
H32	H	0.830200	0.608600	0.183600	0.102782
H33	H	0.927100	0.567500	0.425400	0.107937
H34	H	0.927200	0.692000	0.395300	0.102782
H35	H	0.896500	0.386500	0.235300	0.116344
H36	H	0.888100	0.298000	0.147100	0.109781
H37	H	0.453850	0.453850	0.883600	0.116344
H38	H	0.070150	0.070150	0.873700	0.104425
H39	H	0.883600	0.453850	0.453850	0.116344
H40	H	0.873700	0.070150	0.070150	0.104425
H41	H	0.453850	0.883600	0.453850	0.116344
H42	H	0.070150	0.873700	0.070150	0.104425
C1	C	0.287300	0.664000	0.882900	-0.119910
C2	C	0.251400	0.529500	0.857100	-0.140974
C3	C	0.232300	0.601500	0.852800	-0.031119
C4	C	0.323800	0.511700	0.887400	0.055082
C5	C	0.374800	0.574000	0.909700	-0.140974
C6	C	0.356900	0.650600	0.908900	-0.031119
C7	C	0.271000	0.746100	0.880700	0.666323
C8	C	0.014200	0.203500	0.880300	0.666859
C9	C	0.343000	0.432600	0.886700	0.063208
C10	C	0.284800	0.373900	0.892900	-0.154421
C11	C	0.097800	0.191000	0.884200	-0.134630
C12	C	0.157100	0.247200	0.888100	-0.070588
C13	C	0.882900	0.287300	0.664000	-0.119910
C14	C	0.857100	0.251400	0.529500	-0.140974
C15	C	0.852800	0.232300	0.601500	-0.031119
C16	C	0.887400	0.323800	0.511700	0.055082
C17	C	0.909700	0.374800	0.574000	-0.140974
C18	C	0.908900	0.356900	0.650600	-0.031119
C19	C	0.880700	0.271000	0.746100	0.666323
C20	C	0.880300	0.014200	0.203500	0.666859
C21	C	0.886700	0.343000	0.432600	0.063208
C22	C	0.892900	0.284800	0.373900	-0.154421
C23	C	0.884200	0.097800	0.191000	-0.134630
C24	C	0.888100	0.157100	0.247200	-0.070588
C25	C	0.664000	0.882900	0.287300	-0.119910
C26	C	0.529500	0.857100	0.251400	-0.140974
C27	C	0.601500	0.852800	0.232300	-0.031119
C28	C	0.511700	0.887400	0.323800	0.055082
C29	C	0.574000	0.909700	0.374800	-0.140974
C30	C	0.650600	0.908900	0.356900	-0.031119
C31	C	0.746100	0.880700	0.271000	0.666323
C32	C	0.203500	0.880300	0.014200	0.666859
C33	C	0.432600	0.886700	0.343000	0.063208
C34	C	0.373900	0.892900	0.284800	-0.154421
C35	C	0.191000	0.884200	0.097800	-0.134630
C36	C	0.247200	0.888100	0.157100	-0.070588
C37	C	0.664000	0.287300	0.882900	-0.119910
C38	C	0.529500	0.251400	0.857100	-0.140974
C39	C	0.601500	0.232300	0.852800	-0.031119
C40	C	0.511700	0.323800	0.887400	0.055082
C41	C	0.574000	0.374800	0.909700	-0.140974
C42	C	0.650600	0.356900	0.908900	-0.031119
C43	C	0.746100	0.271000	0.880700	0.666323
C44	C	0.203500	0.014200	0.880300	0.666859
C45	C	0.432600	0.343000	0.886700	0.063208
C46	C	0.373900	0.284800	0.892900	-0.154421
C47	C	0.191000	0.097800	0.884200	-0.134630
C48	C	0.247200	0.157100	0.888100	-0.070588
C49	C	0.287300	0.882900	0.664000	-0.119910
C50	C	0.251400	0.857100	0.529500	-0.140974
C51	C	0.232300	0.852800	0.601500	-0.031119
C52	C	0.323800	0.887400	0.511700	0.055082
C53	C	0.374800	0.909700	0.574000	-0.140974
C54	C	0.356900	0.908900	0.650600	-0.031119
C55	C	0.271000	0.880700	0.746100	0.666323
C56	C	0.014200	0.880300	0.203500	0.666859
C57	C	0.343000	0.886700	0.432600	0.063208
C58	C	0.284800	0.892900	0.373900	-0.154421
C59	C	0.097800	0.884200	0.191000	-0.134630
C60	C	0.157100	0.888100	0.247200	-0.070588
C61	C	0.882900	0.664000	0.287300	-0.119910
C62	C	0.857100	0.529500	0.251400	-0.140974
C63	C	0.852800	0.601500	0.232300	-0.031119
C64	C	0.887400	0.511700	0.323800	0.055082
C65	C	0.909700	0.574000	0.374800	-0.140974
C66	C	0.908900	0.650600	0.356900	-0.031119
C67	C	0.880700	0.746100	0.271000	0.666323
C68	C	0.880300	0.203500	0.014200	0.666859
C69	C	0.886700	0.432600	0.343000	0.063208
C70	C	0.892900	0.373900	0.284800	-0.154421
C71	C	0.884200	0.191000	0.097800	-0.134630
C72	C	0.888100	0.247200	0.157100	-0.070588
C73	C	0.414250	0.414250	0.885400	-0.154421
C74	C	0.296550	0.296550	0.894000	0.067921
C75	C	0.232350	0.232350	0.892200	0.019792
C76	C	0.110490	0.110500	0.879410	-0.000152
C77	C	0.885400	0.414250	0.414250	-0.154421
C78	C	0.894000	0.296550	0.296550	0.067921
C79	C	0.892200	0.232350	0.232350	0.019792
C80	C	0.879410	0.110490	0.110490	-0.000152
C81	C	0.414250	0.885400	0.414250	-0.154421
C82	C	0.296550	0.894000	0.296550	0.067921
C83	C	0.232350	0.892200	0.232350	0.019792
C84	C	0.110490	0.879410	0.110490	-0.000152
O1	O	0.323300	0.799600	0.901200	-0.558791
O2	O	0.959800	0.149100	0.857100	-0.558791
O3	O	0.006280	0.273950	0.900720	-0.558791
O4	O	0.198690	0.752450	0.856420	-0.558791
O5	O	0.901200	0.323300	0.799600	-0.558791
O6	O	0.857100	0.959800	0.149100	-0.558791
O7	O	0.900720	0.006280	0.273950	-0.558791
O8	O	0.856420	0.198690	0.752450	-0.558791
O9	O	0.799600	0.901200	0.323300	-0.558791
O10	O	0.149100	0.857100	0.959800	-0.558791
O11	O	0.273950	0.900720	0.006280	-0.558791
O12	O	0.752450	0.856420	0.198690	-0.558791
O13	O	0.799600	0.323300	0.901200	-0.558791
O14	O	0.149100	0.959800	0.857100	-0.558791
O15	O	0.273950	0.006280	0.900720	-0.558791
O16	O	0.752450	0.198690	0.856420	-0.558791
O17	O	0.323300	0.901200	0.799600	-0.558791
O18	O	0.959800	0.857100	0.149100	-0.558791
O19	O	0.006280	0.900720	0.273950	-0.558791
O20	O	0.198690	0.856420	0.752450	-0.558791
O21	O	0.901200	0.799600	0.323300	-0.558791
O22	O	0.857100	0.149100	0.959800	-0.558791
O23	O	0.900720	0.273950	0.006280	-0.558791
O24	O	0.856420	0.752450	0.198690	-0.558791
