data_ATOTIM_manual_PM
_symmetry_space_group_name_H-M	'P1'
_cell_length_a	6.860600
_cell_length_b	21.203300
_cell_length_c	21.203300
_cell_angle_alpha	119.977500
_cell_angle_beta	90.000000
_cell_angle_gamma	90.000000
_symmetry_Int_Tables_number 1

loop_
_symmetry_equiv_pos_as_xyz
'x,y,z'

loop_
_atom_site_label
_atom_site_type_symbol
_atom_site_fract_x
_atom_site_fract_y
_atom_site_fract_z
_atom_site_charge
V1	V	0.500000	0.000000	0.000000	2.132250
V2	V	0.000000	0.000000	0.000000	2.132250
V3	V	0.500000	0.500000	0.000000	2.132250
V4	V	0.000000	0.500000	0.000000	2.132250
V5	V	0.000000	0.000000	0.500000	2.132250
V6	V	0.500000	0.000000	0.500000	2.132250
H1	H	0.539300	0.321500	0.784100	0.102172
H2	H	0.962200	0.676600	0.961600	0.102172
H3	H	0.959800	0.785100	0.962300	0.102172
H4	H	0.039300	0.678500	0.215900	0.102172
H5	H	0.462200	0.323400	0.038400	0.102172
H6	H	0.459800	0.214900	0.037700	0.102172
H7	H	0.960700	0.215900	0.678500	0.102172
H8	H	0.537800	0.038400	0.323400	0.102172
H9	H	0.540200	0.037700	0.214900	0.102172
H10	H	0.460700	0.784100	0.321500	0.102172
H11	H	0.037800	0.961600	0.676600	0.102172
H12	H	0.040200	0.962300	0.785100	0.102172
H13	H	0.460700	0.678500	0.215900	0.102172
H14	H	0.037800	0.323400	0.038400	0.102172
H15	H	0.040200	0.214900	0.037700	0.102172
H16	H	0.960700	0.321500	0.784100	0.102172
H17	H	0.537800	0.676600	0.961600	0.102172
H18	H	0.540200	0.785100	0.962300	0.102172
H19	H	0.039300	0.784100	0.321500	0.102172
H20	H	0.462200	0.961600	0.676600	0.102172
H21	H	0.459800	0.962300	0.785100	0.102172
H22	H	0.539300	0.215900	0.678500	0.102172
H23	H	0.962200	0.038400	0.323400	0.102172
H24	H	0.959800	0.037700	0.214900	0.102172
C1	C	0.421400	0.299310	0.762990	-0.076003
C2	C	0.079200	0.699400	0.963020	-0.076003
C3	C	0.076700	0.763220	0.962980	-0.076003
C4	C	0.921400	0.700690	0.237010	-0.076003
C5	C	0.579200	0.300600	0.036980	-0.076003
C6	C	0.576700	0.236780	0.037020	-0.076003
C7	C	0.078600	0.237010	0.700690	-0.076003
C8	C	0.420800	0.036980	0.300600	-0.076003
C9	C	0.423300	0.037020	0.236780	-0.076003
C10	C	0.578600	0.762990	0.299310	-0.076003
C11	C	0.920800	0.963020	0.699400	-0.076003
C12	C	0.923300	0.962980	0.763220	-0.076003
C13	C	0.578600	0.700690	0.237010	-0.076003
C14	C	0.920800	0.300600	0.036980	-0.076003
C15	C	0.923300	0.236780	0.037020	-0.076003
C16	C	0.078600	0.299310	0.762990	-0.076003
C17	C	0.420800	0.699400	0.963020	-0.076003
C18	C	0.423300	0.763220	0.962980	-0.076003
C19	C	0.921400	0.762990	0.299310	-0.076003
C20	C	0.579200	0.963020	0.699400	-0.076003
C21	C	0.576700	0.962980	0.763220	-0.076003
C22	C	0.421400	0.237010	0.700690	-0.076003
C23	C	0.079200	0.036980	0.300600	-0.076003
C24	C	0.076700	0.037020	0.236780	-0.076003
C25	C	0.250000	0.331560	0.796900	-0.092853
C26	C	0.250000	0.604630	0.980950	0.692809
C27	C	0.250000	0.402240	0.877500	0.692809
C28	C	0.250000	0.668280	0.965020	-0.092853
C29	C	0.250000	0.870090	0.969370	0.692809
C30	C	0.250000	0.794260	0.963880	-0.092853
C31	C	0.750000	0.668440	0.203100	-0.092853
C32	C	0.750000	0.395370	0.019050	0.692809
C33	C	0.750000	0.597760	0.122500	0.692809
C34	C	0.750000	0.331720	0.034980	-0.092853
C35	C	0.750000	0.129910	0.030630	0.692809
C36	C	0.750000	0.205740	0.036120	-0.092853
C37	C	0.250000	0.203100	0.668440	-0.092853
C38	C	0.250000	0.019050	0.395370	0.692809
C39	C	0.250000	0.122500	0.597760	0.692809
C40	C	0.250000	0.034980	0.331720	-0.092853
C41	C	0.250000	0.030630	0.129910	0.692809
C42	C	0.250000	0.036120	0.205740	-0.092853
C43	C	0.750000	0.796900	0.331560	-0.092853
C44	C	0.750000	0.980950	0.604630	0.692809
C45	C	0.750000	0.877500	0.402240	0.692809
C46	C	0.750000	0.965020	0.668280	-0.092853
C47	C	0.750000	0.969370	0.870090	0.692809
C48	C	0.750000	0.963880	0.794260	-0.092853
O1	O	0.409600	0.425000	0.901660	-0.666619
O2	O	0.415900	0.900230	0.974630	-0.666619
O3	O	0.415100	0.576110	0.977610	-0.666619
O4	O	0.909600	0.575000	0.098340	-0.666619
O5	O	0.915900	0.099770	0.025370	-0.666619
O6	O	0.915100	0.423890	0.022390	-0.666619
O7	O	0.090400	0.098340	0.575000	-0.666619
O8	O	0.084100	0.025370	0.099770	-0.666619
O9	O	0.084900	0.022390	0.423890	-0.666619
O10	O	0.590400	0.901660	0.425000	-0.666619
O11	O	0.584100	0.974630	0.900230	-0.666619
O12	O	0.584900	0.977610	0.576110	-0.666619
O13	O	0.590400	0.575000	0.098340	-0.666619
O14	O	0.584100	0.099770	0.025370	-0.666619
O15	O	0.584900	0.423890	0.022390	-0.666619
O16	O	0.090400	0.425000	0.901660	-0.666619
O17	O	0.084100	0.900230	0.974630	-0.666619
O18	O	0.084900	0.576110	0.977610	-0.666619
O19	O	0.909600	0.901660	0.425000	-0.666619
O20	O	0.915900	0.974630	0.900230	-0.666619
O21	O	0.915100	0.977610	0.576110	-0.666619
O22	O	0.409600	0.098340	0.575000	-0.666619
O23	O	0.415900	0.025370	0.099770	-0.666619
O24	O	0.415100	0.022390	0.423890	-0.666619
O25	O	0.750000	0.982440	0.017560	-0.770363
O26	O	0.250000	0.017560	0.982440	-0.770363
O27	O	0.750000	0.501300	0.958620	-0.770363
O28	O	0.250000	0.498700	0.041380	-0.770363
O29	O	0.750000	0.041380	0.498700	-0.770363
O30	O	0.250000	0.958620	0.501300	-0.770363
