data_AVESAW_clean_PM
_symmetry_space_group_name_H-M	'P1'
_cell_length_a	10.341700
_cell_length_b	13.414800
_cell_length_c	17.567678
_cell_angle_alpha	90.000000
_cell_angle_beta	107.117770
_cell_angle_gamma	90.000000
_symmetry_Int_Tables_number 1

loop_
_symmetry_equiv_pos_as_xyz
'x,y,z'

loop_
_atom_site_label
_atom_site_type_symbol
_atom_site_fract_x
_atom_site_fract_y
_atom_site_fract_z
_atom_site_charge
Cd1	Cd	0.565320	0.527530	0.130640	0.833706
Cd2	Cd	0.643420	0.752080	0.286840	0.693283
Cd3	Cd	0.686390	0.012460	0.372780	0.639424
Cd4	Cd	0.731640	0.276140	0.463280	0.804854
Cd5	Cd	0.434680	0.027530	0.869360	0.833706
Cd6	Cd	0.356580	0.252080	0.713160	0.693283
Cd7	Cd	0.313610	0.512460	0.627220	0.639424
Cd8	Cd	0.268360	0.776140	0.536720	0.804854
Cd9	Cd	0.105630	0.247160	0.211260	0.834268
Cd10	Cd	0.894380	0.747160	0.788750	0.834268
Cd11	Cd	0.015080	0.789340	0.030160	0.816196
Cd12	Cd	0.984920	0.289340	0.969840	0.816196
H1	H	0.250700	0.622400	0.045800	0.067982
H2	H	0.305500	0.826900	0.207000	0.066685
H3	H	0.983400	0.693300	0.402400	0.066705
H4	H	0.023900	0.965400	0.476200	0.067008
H5	H	0.381300	0.322100	0.366000	0.067444
H6	H	0.353400	0.067100	0.261400	0.067917
H7	H	0.840000	0.397700	0.218800	0.070929
H8	H	0.690300	0.393800	0.991400	0.067118
H9	H	0.749300	0.122400	0.954200	0.067982
H10	H	0.694500	0.326900	0.793000	0.066685
H11	H	0.016600	0.193300	0.597600	0.066705
H12	H	0.976100	0.465400	0.523800	0.067008
H13	H	0.618700	0.822100	0.634000	0.067444
H14	H	0.646600	0.567100	0.738600	0.067917
H15	H	0.160000	0.897700	0.781200	0.070929
H16	H	0.309700	0.893800	0.008600	0.067118
H17	H	0.204900	0.122400	0.954200	0.067982
H18	H	0.098500	0.326900	0.793000	0.066685
H19	H	0.581000	0.193300	0.597600	0.066705
H20	H	0.547700	0.465400	0.523800	0.067008
H21	H	0.015300	0.822100	0.634000	0.067444
H22	H	0.092000	0.567100	0.738600	0.067917
H23	H	0.621200	0.897700	0.781200	0.070929
H24	H	0.698900	0.893800	0.008600	0.067118
H25	H	0.795100	0.622400	0.045800	0.067982
H26	H	0.901500	0.826900	0.207000	0.066685
H27	H	0.419000	0.693300	0.402400	0.066705
H28	H	0.452300	0.965400	0.476200	0.067008
H29	H	0.984700	0.322100	0.366000	0.067444
H30	H	0.908000	0.067100	0.261400	0.067917
H31	H	0.378800	0.397700	0.218800	0.070929
H32	H	0.301100	0.393800	0.991400	0.067118
H33	H	0.643100	0.358900	0.286200	0.068159
H34	H	0.721900	0.566500	0.443800	0.066705
H35	H	0.356900	0.858900	0.713800	0.068159
H36	H	0.278100	0.066500	0.556200	0.066705
H37	H	0.979800	0.021000	0.959600	0.066450
H38	H	0.092700	0.985800	0.185400	0.067982
H39	H	0.020200	0.521000	0.040400	0.066450
H40	H	0.907300	0.485800	0.814600	0.067982
C1	C	0.288730	0.661800	0.090460	0.230296
C2	C	0.318420	0.772300	0.177440	0.226722
C3	C	0.965390	0.759700	0.410380	0.224833
C4	C	0.987360	0.906800	0.450320	0.225075
C5	C	0.402390	0.259900	0.349380	0.232066
C6	C	0.387040	0.122400	0.292880	0.229667
C7	C	0.827770	0.385100	0.165140	0.233595
C8	C	0.746950	0.383300	0.042700	0.235631
C9	C	0.711270	0.161800	0.909540	0.230296
C10	C	0.681580	0.272300	0.822560	0.226722
C11	C	0.034610	0.259700	0.589620	0.224833
C12	C	0.012640	0.406800	0.549680	0.225075
C13	C	0.597610	0.759900	0.650620	0.232066
C14	C	0.612960	0.622400	0.707120	0.229667
C15	C	0.172230	0.885100	0.834860	0.233595
C16	C	0.253050	0.883300	0.957300	0.235631
C17	C	0.198270	0.161800	0.909540	0.230296
C18	C	0.140980	0.272300	0.822560	0.226722
C19	C	0.555010	0.259700	0.589620	0.224833
C20	C	0.537040	0.406800	0.549680	0.225075
C21	C	0.053010	0.759900	0.650620	0.232066
C22	C	0.094160	0.622400	0.707120	0.229667
C23	C	0.662630	0.885100	0.834860	0.233595
C24	C	0.704250	0.883300	0.957300	0.235631
C25	C	0.801730	0.661800	0.090460	0.230296
C26	C	0.859020	0.772300	0.177440	0.226722
C27	C	0.444990	0.759700	0.410380	0.224833
C28	C	0.462960	0.906800	0.450320	0.225075
C29	C	0.946990	0.259900	0.349380	0.232066
C30	C	0.905840	0.122400	0.292880	0.229667
C31	C	0.337370	0.385100	0.165140	0.233595
C32	C	0.295750	0.383300	0.042700	0.235631
C33	C	0.655130	0.421300	0.310260	0.232306
C34	C	0.697530	0.533300	0.395060	0.229064
C35	C	0.344870	0.921300	0.689740	0.232306
C36	C	0.302470	0.033300	0.604940	0.229064
C37	C	0.006910	0.034900	0.013820	0.227583
C38	C	0.067520	0.014700	0.135040	0.230132
C39	C	0.993090	0.534900	0.986180	0.227583
C40	C	0.932480	0.514700	0.864960	0.230132
N1	N	0.411870	0.648400	0.138540	-0.276206
N2	N	0.432490	0.720500	0.195380	-0.248986
N3	N	0.223260	0.739000	0.112720	-0.448544
N4	N	0.846350	0.802200	0.378300	-0.238923
N5	N	0.861080	0.899000	0.404760	-0.223176
N6	N	0.057360	0.821900	0.455520	-0.438119
N7	N	0.524620	0.219400	0.374840	-0.262690
N8	N	0.514580	0.130000	0.338160	-0.219413
N9	N	0.311760	0.201900	0.296920	-0.456104
N10	N	0.915700	0.335400	0.139400	-0.268848
N11	N	0.862980	0.334400	0.058360	-0.284698
N12	N	0.719620	0.416000	0.108040	-0.455065
N13	N	0.588130	0.148400	0.861460	-0.276206
N14	N	0.567510	0.220500	0.804620	-0.248986
N15	N	0.776740	0.239000	0.887280	-0.448544
N16	N	0.153650	0.302200	0.621700	-0.238923
N17	N	0.138920	0.399000	0.595240	-0.223176
N18	N	0.942640	0.321900	0.544480	-0.438119
N19	N	0.475380	0.719400	0.625160	-0.262690
N20	N	0.485420	0.630000	0.661840	-0.219413
N21	N	0.688240	0.701900	0.703080	-0.456104
N22	N	0.084300	0.835400	0.860600	-0.268848
N23	N	0.137020	0.834400	0.941640	-0.284698
N24	N	0.280380	0.916000	0.891960	-0.455065
N25	N	0.273330	0.148400	0.861460	-0.276206
N26	N	0.237110	0.220500	0.804620	-0.248986
N27	N	0.110540	0.239000	0.887280	-0.448544
N28	N	0.468050	0.302200	0.621700	-0.238923
N29	N	0.456320	0.399000	0.595240	-0.223176
N30	N	0.601840	0.321900	0.544480	-0.438119
N31	N	0.149780	0.719400	0.625160	-0.262690
N32	N	0.176420	0.630000	0.661840	-0.219413
N33	N	0.014840	0.701900	0.703080	-0.456104
N34	N	0.776300	0.835400	0.860600	-0.268848
N35	N	0.804620	0.834400	0.941640	-0.284698
N36	N	0.611580	0.916000	0.891960	-0.455065
N37	N	0.726670	0.648400	0.138540	-0.276206
N38	N	0.762890	0.720500	0.195380	-0.248986
N39	N	0.889460	0.739000	0.112720	-0.448544
N40	N	0.531950	0.802200	0.378300	-0.238923
N41	N	0.543680	0.899000	0.404760	-0.223176
N42	N	0.398160	0.821900	0.455520	-0.438119
N43	N	0.850220	0.219400	0.374840	-0.262690
N44	N	0.823580	0.130000	0.338160	-0.219413
N45	N	0.985160	0.201900	0.296920	-0.456104
N46	N	0.223700	0.335400	0.139400	-0.268848
N47	N	0.195380	0.334400	0.058360	-0.284698
N48	N	0.388420	0.416000	0.108040	-0.455065
N49	N	0.634600	0.505100	0.269200	-0.276224
N50	N	0.662870	0.580400	0.325740	-0.248961
N51	N	0.694510	0.433000	0.389020	-0.438368
N52	N	0.365400	0.005100	0.730800	-0.276224
N53	N	0.337130	0.080400	0.674260	-0.248961
N54	N	0.305490	0.933000	0.610980	-0.438368
N55	N	0.061810	0.114300	0.123620	-0.270366
N56	N	0.020730	0.125400	0.041460	-0.285295
N57	N	0.034790	0.962600	0.069580	-0.448632
N58	N	0.938190	0.614300	0.876380	-0.270366
N59	N	0.979270	0.625400	0.958540	-0.285295
N60	N	0.965210	0.462600	0.930420	-0.448632
Cl1	Cl	0.613580	0.938340	0.227160	-0.476559
Cl2	Cl	0.760210	0.090070	0.520420	-0.483517
Cl3	Cl	0.386420	0.438340	0.772840	-0.476559
Cl4	Cl	0.239790	0.590070	0.479580	-0.483517
