data_BARZOK_clean_PM
_symmetry_space_group_name_H-M	'P1'
_cell_length_a	18.380000
_cell_length_b	18.555544
_cell_length_c	18.555700
_cell_angle_alpha	109.661971
_cell_angle_beta	109.280000
_cell_angle_gamma	109.279140
_symmetry_Int_Tables_number 1

loop_
_symmetry_equiv_pos_as_xyz
'x,y,z'

loop_
_atom_site_label
_atom_site_type_symbol
_atom_site_fract_x
_atom_site_fract_y
_atom_site_fract_z
_atom_site_charge
Cu1	Cu	0.447380	0.935290	0.506900	0.833442
Cu2	Cu	0.940480	0.493100	0.428390	0.833442
Cu3	Cu	0.512090	0.571610	0.064710	0.833442
Cu4	Cu	0.987910	0.935290	0.428390	0.833442
Cu5	Cu	0.052620	0.493100	0.064710	0.833442
Cu6	Cu	0.559520	0.571610	0.506900	0.833442
Cu7	Cu	0.552620	0.064710	0.493100	0.833442
Cu8	Cu	0.059520	0.506900	0.571610	0.833442
Cu9	Cu	0.487910	0.428390	0.935290	0.833442
Cu10	Cu	0.012090	0.064710	0.571610	0.833442
Cu11	Cu	0.947380	0.506900	0.935290	0.833442
Cu12	Cu	0.440480	0.428390	0.493100	0.833442
H1	H	0.266000	0.879300	0.477600	0.082388
H2	H	0.490600	0.830700	0.586800	0.123543
H3	H	0.164000	0.818000	0.516400	0.128876
H4	H	0.520300	0.761100	0.666300	0.096023
H5	H	0.296300	0.707600	0.676000	0.102664
H6	H	0.195900	0.754400	0.601900	0.103546
H7	H	0.422100	0.698600	0.709000	0.099747
H8	H	0.490000	0.270700	0.622300	0.098549
H9	H	0.362700	0.986500	0.225200	0.098549
H10	H	0.788400	0.522400	0.401700	0.082388
H11	H	0.903800	0.413200	0.243900	0.123543
H12	H	0.647600	0.483600	0.301600	0.128876
H13	H	0.854000	0.333700	0.094800	0.096023
H14	H	0.620300	0.324000	0.031600	0.102664
H15	H	0.594000	0.398100	0.152500	0.103546
H16	H	0.713100	0.291000	0.989600	0.099747
H17	H	0.867700	0.377700	0.648400	0.098549
H18	H	0.137500	0.774800	0.761300	0.098549
H19	H	0.386700	0.598300	0.120700	0.082388
H20	H	0.659900	0.756100	0.169300	0.123543
H21	H	0.346000	0.698400	0.182000	0.128876
H22	H	0.759200	0.905200	0.238900	0.096023
H23	H	0.588700	0.968400	0.292400	0.102664
H24	H	0.441500	0.847500	0.245600	0.103546
H25	H	0.723500	0.010400	0.301400	0.099747
H26	H	0.219300	0.351600	0.729300	0.098549
H27	H	0.376200	0.238700	0.013500	0.098549
H28	H	0.113300	0.879300	0.401700	0.082388
H29	H	0.840100	0.830700	0.243900	0.123543
H30	H	0.154000	0.818000	0.301600	0.128876
H31	H	0.740800	0.761100	0.094800	0.096023
H32	H	0.911300	0.707600	0.031600	0.102664
H33	H	0.058500	0.754400	0.152500	0.103546
H34	H	0.776500	0.698600	0.989600	0.099747
H35	H	0.280700	0.270700	0.648400	0.098549
H36	H	0.123800	0.986500	0.761300	0.098549
H37	H	0.234000	0.522400	0.120700	0.082388
H38	H	0.009400	0.413200	0.169300	0.123543
H39	H	0.336000	0.483600	0.182000	0.128876
H40	H	0.979700	0.333700	0.238900	0.096023
H41	H	0.203700	0.324000	0.292400	0.102664
H42	H	0.304100	0.398100	0.245600	0.103546
H43	H	0.077900	0.291000	0.301400	0.099747
H44	H	0.010000	0.377700	0.729300	0.098549
H45	H	0.137300	0.774800	0.013500	0.098549
H46	H	0.711600	0.598300	0.477600	0.082388
H47	H	0.596200	0.756100	0.586800	0.123543
H48	H	0.852400	0.698400	0.516400	0.128876
H49	H	0.646000	0.905200	0.666300	0.096023
H50	H	0.879700	0.968400	0.676000	0.102664
H51	H	0.906000	0.847500	0.601900	0.103546
H52	H	0.786900	0.010400	0.709000	0.099747
H53	H	0.632300	0.351600	0.622300	0.098549
H54	H	0.362500	0.238700	0.225200	0.098549
H55	H	0.734000	0.120700	0.522400	0.082388
H56	H	0.509400	0.169300	0.413200	0.123543
H57	H	0.836000	0.182000	0.483600	0.128876
H58	H	0.479700	0.238900	0.333700	0.096023
H59	H	0.703700	0.292400	0.324000	0.102664
H60	H	0.804100	0.245600	0.398100	0.103546
H61	H	0.577900	0.301400	0.291000	0.099747
H62	H	0.510000	0.729300	0.377700	0.098549
H63	H	0.637300	0.013500	0.774800	0.098549
H64	H	0.211600	0.477600	0.598300	0.082388
H65	H	0.096200	0.586800	0.756100	0.123543
H66	H	0.352400	0.516400	0.698400	0.128876
H67	H	0.146000	0.666300	0.905200	0.096023
H68	H	0.379700	0.676000	0.968400	0.102664
H69	H	0.406000	0.601900	0.847500	0.103546
H70	H	0.286900	0.709000	0.010400	0.099747
H71	H	0.132300	0.622300	0.351600	0.098549
H72	H	0.862500	0.225200	0.238700	0.098549
H73	H	0.613300	0.401700	0.879300	0.082388
H74	H	0.340100	0.243900	0.830700	0.123543
H75	H	0.654000	0.301600	0.818000	0.128876
H76	H	0.240800	0.094800	0.761100	0.096023
H77	H	0.411300	0.031600	0.707600	0.102664
H78	H	0.558500	0.152500	0.754400	0.103546
H79	H	0.276500	0.989600	0.698600	0.099747
H80	H	0.780700	0.648400	0.270700	0.098549
H81	H	0.623800	0.761300	0.986500	0.098549
H82	H	0.886700	0.120700	0.598300	0.082388
H83	H	0.159900	0.169300	0.756100	0.123543
H84	H	0.846000	0.182000	0.698400	0.128876
H85	H	0.259200	0.238900	0.905200	0.096023
H86	H	0.088700	0.292400	0.968400	0.102664
H87	H	0.941500	0.245600	0.847500	0.103546
H88	H	0.223500	0.301400	0.010400	0.099747
H89	H	0.719300	0.729300	0.351600	0.098549
H90	H	0.876200	0.013500	0.238700	0.098549
H91	H	0.766000	0.477600	0.879300	0.082388
H92	H	0.990600	0.586800	0.830700	0.123543
H93	H	0.664000	0.516400	0.818000	0.128876
H94	H	0.020300	0.666300	0.761100	0.096023
H95	H	0.796300	0.676000	0.707600	0.102664
H96	H	0.695900	0.601900	0.754400	0.103546
H97	H	0.922100	0.709000	0.698600	0.099747
H98	H	0.990000	0.622300	0.270700	0.098549
H99	H	0.862700	0.225200	0.986500	0.098549
H100	H	0.288400	0.401700	0.522400	0.082388
H101	H	0.403800	0.243900	0.413200	0.123543
H102	H	0.147600	0.301600	0.483600	0.128876
H103	H	0.354000	0.094800	0.333700	0.096023
H104	H	0.120300	0.031600	0.324000	0.102664
H105	H	0.094000	0.152500	0.398100	0.103546
H106	H	0.213100	0.989600	0.291000	0.099747
H107	H	0.367700	0.648400	0.377700	0.098549
H108	H	0.637500	0.761300	0.774800	0.098549
H109	H	0.271200	0.042400	0.521200	0.102176
H110	H	0.422900	0.345800	0.672900	0.100143
H111	H	0.750000	0.478800	0.521200	0.102176
H112	H	0.750000	0.327100	0.672900	0.100143
H113	H	0.228800	0.478800	0.957600	0.102176
H114	H	0.077100	0.327100	0.654200	0.100143
H115	H	0.728800	0.957600	0.478800	0.102176
H116	H	0.577100	0.654200	0.327100	0.100143
H117	H	0.250000	0.521200	0.478800	0.102176
H118	H	0.250000	0.672900	0.327100	0.100143
H119	H	0.771200	0.521200	0.042400	0.102176
H120	H	0.922900	0.672900	0.345800	0.100143
H121	H	0.250000	0.765950	0.234050	0.102176
H122	H	0.250000	0.919450	0.080550	0.100143
H123	H	0.015950	0.765950	0.531900	0.102176
H124	H	0.169450	0.919450	0.838900	0.100143
H125	H	0.484050	0.468100	0.234050	0.102176
H126	H	0.330550	0.161100	0.080550	0.100143
H127	H	0.750000	0.234050	0.765950	0.102176
H128	H	0.750000	0.080550	0.919450	0.100143
H129	H	0.984050	0.234050	0.468100	0.102176
H130	H	0.830550	0.080550	0.161100	0.100143
H131	H	0.515950	0.531900	0.765950	0.102176
H132	H	0.669450	0.838900	0.919450	0.100143
C1	C	0.373100	0.811500	0.582000	0.220588
C2	C	0.279600	0.852400	0.511700	0.172722
C3	C	0.450000	0.805900	0.604100	-0.191804
C4	C	0.313000	0.773900	0.608200	-0.013842
C5	C	0.217800	0.816100	0.534800	-0.155729
C6	C	0.467400	0.764600	0.651100	-0.039194
C7	C	0.335200	0.732500	0.657100	-0.090599
C8	C	0.236400	0.778200	0.584100	-0.036903
C9	C	0.409100	0.727500	0.677100	-0.100178
C10	C	0.432900	0.097800	0.543500	0.647410
C11	C	0.387300	0.148100	0.569100	-0.142810
C12	C	0.431900	0.239000	0.612600	-0.035735
C13	C	0.382200	0.927300	0.340800	0.647410
C14	C	0.314300	0.884000	0.245800	-0.142810
C15	C	0.315600	0.927900	0.198000	-0.035735
C16	C	0.791100	0.418000	0.229500	0.220588
C17	C	0.767900	0.488300	0.340700	0.172722
C18	C	0.845900	0.395900	0.201800	-0.191804
C19	C	0.704800	0.391800	0.165700	-0.013842
C20	C	0.683000	0.465200	0.281300	-0.155729
C21	C	0.816300	0.348900	0.113500	-0.039194
C22	C	0.678100	0.342900	0.075400	-0.090599
C23	C	0.652300	0.415900	0.194100	-0.036903
C24	C	0.732000	0.322900	0.050400	-0.100178
C25	C	0.889400	0.456500	0.554300	0.647410
C26	C	0.818200	0.430900	0.579000	-0.142810
C27	C	0.819300	0.387400	0.626400	-0.035735
C28	C	0.041400	0.659200	0.586500	0.647410
C29	C	0.068500	0.754200	0.638200	-0.142810
C30	C	0.117600	0.802000	0.729900	-0.035735
C31	C	0.561600	0.770500	0.188500	0.220588
C32	C	0.427200	0.659300	0.147600	0.172722
C33	C	0.644100	0.798200	0.194100	-0.191804
C34	C	0.539100	0.834300	0.226100	-0.013842
C35	C	0.401700	0.718700	0.183900	-0.155729
C36	C	0.702800	0.886500	0.235400	-0.039194
C37	C	0.602700	0.924600	0.267500	-0.090599
C38	C	0.458200	0.805900	0.221800	-0.036903
C39	C	0.681600	0.949600	0.272500	-0.100178
C40	C	0.335100	0.445700	0.902200	0.647410
C41	C	0.239200	0.421000	0.851900	-0.142810
C42	C	0.192900	0.373600	0.761000	-0.035735
C43	C	0.454900	0.413500	0.072700	0.647410
C44	C	0.430300	0.361800	0.116000	-0.142810
C45	C	0.387700	0.270100	0.072100	-0.035735
C46	C	0.938400	0.811500	0.229500	0.220588
C47	C	0.072800	0.852400	0.340700	0.172722
C48	C	0.855900	0.805900	0.201800	-0.191804
C49	C	0.960900	0.773900	0.165700	-0.013842
C50	C	0.098300	0.816100	0.281300	-0.155729
C51	C	0.797200	0.764600	0.113500	-0.039194
C52	C	0.897300	0.732500	0.075400	-0.090599
C53	C	0.041800	0.778200	0.194100	-0.036903
C54	C	0.818400	0.727500	0.050400	-0.100178
C55	C	0.164900	0.097800	0.554300	0.647410
C56	C	0.260800	0.148100	0.579000	-0.142810
C57	C	0.307100	0.239000	0.626400	-0.035735
C58	C	0.045100	0.927300	0.586500	0.647410
C59	C	0.069700	0.884000	0.638200	-0.142810
C60	C	0.112300	0.927900	0.729900	-0.035735
C61	C	0.126900	0.418000	0.188500	0.220588
C62	C	0.220400	0.488300	0.147600	0.172722
C63	C	0.050000	0.395900	0.194100	-0.191804
C64	C	0.187000	0.391800	0.226100	-0.013842
C65	C	0.282200	0.465200	0.183900	-0.155729
C66	C	0.032600	0.348900	0.235400	-0.039194
C67	C	0.164800	0.342900	0.267500	-0.090599
C68	C	0.263600	0.415900	0.221800	-0.036903
C69	C	0.090900	0.322900	0.272500	-0.100178
C70	C	0.067100	0.456500	0.902200	0.647410
C71	C	0.112700	0.430900	0.851900	-0.142810
C72	C	0.068100	0.387400	0.761000	-0.035735
C73	C	0.117800	0.659200	0.072700	0.647410
C74	C	0.185700	0.754200	0.116000	-0.142810
C75	C	0.184400	0.802000	0.072100	-0.035735
C76	C	0.708900	0.770500	0.582000	0.220588
C77	C	0.732100	0.659300	0.511700	0.172722
C78	C	0.654100	0.798200	0.604100	-0.191804
C79	C	0.795200	0.834300	0.608200	-0.013842
C80	C	0.817000	0.718700	0.534800	-0.155729
C81	C	0.683700	0.886500	0.651100	-0.039194
C82	C	0.821900	0.924600	0.657100	-0.090599
C83	C	0.847700	0.805900	0.584100	-0.036903
C84	C	0.768000	0.949600	0.677100	-0.100178
C85	C	0.610600	0.445700	0.543500	0.647410
C86	C	0.681800	0.421000	0.569100	-0.142810
C87	C	0.680700	0.373600	0.612600	-0.035735
C88	C	0.458600	0.413500	0.340800	0.647410
C89	C	0.431500	0.361800	0.245800	-0.142810
C90	C	0.382400	0.270100	0.198000	-0.035735
C91	C	0.626900	0.188500	0.418000	0.220588
C92	C	0.720400	0.147600	0.488300	0.172722
C93	C	0.550000	0.194100	0.395900	-0.191804
C94	C	0.687000	0.226100	0.391800	-0.013842
C95	C	0.782200	0.183900	0.465200	-0.155729
C96	C	0.532600	0.235400	0.348900	-0.039194
C97	C	0.664800	0.267500	0.342900	-0.090599
C98	C	0.763600	0.221800	0.415900	-0.036903
C99	C	0.590900	0.272500	0.322900	-0.100178
C100	C	0.567100	0.902200	0.456500	0.647410
C101	C	0.612700	0.851900	0.430900	-0.142810
C102	C	0.568100	0.761000	0.387400	-0.035735
C103	C	0.617800	0.072700	0.659200	0.647410
C104	C	0.685700	0.116000	0.754200	-0.142810
C105	C	0.684400	0.072100	0.802000	-0.035735
C106	C	0.208900	0.582000	0.770500	0.220588
C107	C	0.232100	0.511700	0.659300	0.172722
C108	C	0.154100	0.604100	0.798200	-0.191804
C109	C	0.295200	0.608200	0.834300	-0.013842
C110	C	0.317000	0.534800	0.718700	-0.155729
C111	C	0.183700	0.651100	0.886500	-0.039194
C112	C	0.321900	0.657100	0.924600	-0.090599
C113	C	0.347700	0.584100	0.805900	-0.036903
C114	C	0.268000	0.677100	0.949600	-0.100178
C115	C	0.110600	0.543500	0.445700	0.647410
C116	C	0.181800	0.569100	0.421000	-0.142810
C117	C	0.180700	0.612600	0.373600	-0.035735
C118	C	0.958600	0.340800	0.413500	0.647410
C119	C	0.931500	0.245800	0.361800	-0.142810
C120	C	0.882400	0.198000	0.270100	-0.035735
C121	C	0.438400	0.229500	0.811500	0.220588
C122	C	0.572800	0.340700	0.852400	0.172722
C123	C	0.355900	0.201800	0.805900	-0.191804
C124	C	0.460900	0.165700	0.773900	-0.013842
C125	C	0.598300	0.281300	0.816100	-0.155729
C126	C	0.297200	0.113500	0.764600	-0.039194
C127	C	0.397300	0.075400	0.732500	-0.090599
C128	C	0.541800	0.194100	0.778200	-0.036903
C129	C	0.318400	0.050400	0.727500	-0.100178
C130	C	0.664900	0.554300	0.097800	0.647410
C131	C	0.760800	0.579000	0.148100	-0.142810
C132	C	0.807100	0.626400	0.239000	-0.035735
C133	C	0.545100	0.586500	0.927300	0.647410
C134	C	0.569700	0.638200	0.884000	-0.142810
C135	C	0.612300	0.729900	0.927900	-0.035735
C136	C	0.061600	0.188500	0.770500	0.220588
C137	C	0.927200	0.147600	0.659300	0.172722
C138	C	0.144100	0.194100	0.798200	-0.191804
C139	C	0.039100	0.226100	0.834300	-0.013842
C140	C	0.901700	0.183900	0.718700	-0.155729
C141	C	0.202800	0.235400	0.886500	-0.039194
C142	C	0.102700	0.267500	0.924600	-0.090599
C143	C	0.958200	0.221800	0.805900	-0.036903
C144	C	0.181600	0.272500	0.949600	-0.100178
C145	C	0.835100	0.902200	0.445700	0.647410
C146	C	0.739200	0.851900	0.421000	-0.142810
C147	C	0.692900	0.761000	0.373600	-0.035735
C148	C	0.954900	0.072700	0.413500	0.647410
C149	C	0.930300	0.116000	0.361800	-0.142810
C150	C	0.887700	0.072100	0.270100	-0.035735
C151	C	0.873100	0.582000	0.811500	0.220588
C152	C	0.779600	0.511700	0.852400	0.172722
C153	C	0.950000	0.604100	0.805900	-0.191804
C154	C	0.813000	0.608200	0.773900	-0.013842
C155	C	0.717800	0.534800	0.816100	-0.155729
C156	C	0.967400	0.651100	0.764600	-0.039194
C157	C	0.835200	0.657100	0.732500	-0.090599
C158	C	0.736400	0.584100	0.778200	-0.036903
C159	C	0.909100	0.677100	0.727500	-0.100178
C160	C	0.932900	0.543500	0.097800	0.647410
C161	C	0.887300	0.569100	0.148100	-0.142810
C162	C	0.931900	0.612600	0.239000	-0.035735
C163	C	0.882200	0.340800	0.927300	0.647410
C164	C	0.814300	0.245800	0.884000	-0.142810
C165	C	0.815600	0.198000	0.927900	-0.035735
C166	C	0.291100	0.229500	0.418000	0.220588
C167	C	0.267900	0.340700	0.488300	0.172722
C168	C	0.345900	0.201800	0.395900	-0.191804
C169	C	0.204800	0.165700	0.391800	-0.013842
C170	C	0.183000	0.281300	0.465200	-0.155729
C171	C	0.316300	0.113500	0.348900	-0.039194
C172	C	0.178100	0.075400	0.342900	-0.090599
C173	C	0.152300	0.194100	0.415900	-0.036903
C174	C	0.232000	0.050400	0.322900	-0.100178
C175	C	0.389400	0.554300	0.456500	0.647410
C176	C	0.318200	0.579000	0.430900	-0.142810
C177	C	0.319300	0.626400	0.387400	-0.035735
C178	C	0.541400	0.586500	0.659200	0.647410
C179	C	0.568500	0.638200	0.754200	-0.142810
C180	C	0.617600	0.729900	0.802000	-0.035735
C181	C	0.302500	0.105000	0.552500	-0.009803
C182	C	0.391600	0.283200	0.641600	-0.136907
C183	C	0.750000	0.447500	0.552500	-0.009803
C184	C	0.750000	0.358400	0.641600	-0.136907
C185	C	0.197500	0.447500	0.895000	-0.009803
C186	C	0.108400	0.358400	0.716800	-0.136907
C187	C	0.697500	0.895000	0.447500	-0.009803
C188	C	0.608400	0.716800	0.358400	-0.136907
C189	C	0.250000	0.552500	0.447500	-0.009803
C190	C	0.250000	0.641600	0.358400	-0.136907
C191	C	0.802500	0.552500	0.105000	-0.009803
C192	C	0.891600	0.641600	0.283200	-0.136907
C193	C	0.250000	0.797250	0.202750	-0.009803
C194	C	0.250000	0.888150	0.111850	-0.136907
C195	C	0.047250	0.797250	0.594500	-0.009803
C196	C	0.138150	0.888150	0.776300	-0.136907
C197	C	0.452750	0.405500	0.202750	-0.009803
C198	C	0.361850	0.223700	0.111850	-0.136907
C199	C	0.750000	0.202750	0.797250	-0.009803
C200	C	0.750000	0.111850	0.888150	-0.136907
C201	C	0.952750	0.202750	0.405500	-0.009803
C202	C	0.861850	0.111850	0.223700	-0.136907
C203	C	0.547250	0.594500	0.797250	-0.009803
C204	C	0.638150	0.776300	0.888150	-0.136907
N1	N	0.355200	0.852400	0.533600	-0.323928
N2	N	0.821600	0.466400	0.318800	-0.323928
N3	N	0.502800	0.681200	0.147600	-0.323928
N4	N	0.997200	0.852400	0.318800	-0.323928
N5	N	0.144800	0.466400	0.147600	-0.323928
N6	N	0.678400	0.681200	0.533600	-0.323928
N7	N	0.644800	0.147600	0.466400	-0.323928
N8	N	0.178400	0.533600	0.681200	-0.323928
N9	N	0.497200	0.318800	0.852400	-0.323928
N10	N	0.002800	0.147600	0.681200	-0.323928
N11	N	0.855200	0.533600	0.852400	-0.323928
N12	N	0.321600	0.318800	0.466400	-0.323928
O1	O	0.405900	0.023200	0.537400	-0.550450
O2	O	0.365000	0.888800	0.382600	-0.550450
O3	O	0.452100	0.999100	0.372200	-0.550450
O4	O	0.496400	0.132500	0.531600	-0.550450
O5	O	0.868500	0.462600	0.485800	-0.550450
O6	O	0.982400	0.617400	0.506200	-0.550450
O7	O	0.079900	0.627800	0.626900	-0.550450
O8	O	0.964800	0.468400	0.600900	-0.550450
O9	O	0.382700	0.514200	0.976800	-0.550450
O10	O	0.476200	0.493800	0.111200	-0.550450
O11	O	0.453000	0.373100	0.000900	-0.550450
O12	O	0.363900	0.399100	0.867500	-0.550450
O13	O	0.117300	0.023200	0.485800	-0.550450
O14	O	0.023800	0.888800	0.506200	-0.550450
O15	O	0.047000	0.999100	0.626900	-0.550450
O16	O	0.136100	0.132500	0.600900	-0.550450
O17	O	0.094100	0.462600	0.976800	-0.550450
O18	O	0.135000	0.617400	0.111200	-0.550450
O19	O	0.047900	0.627800	0.000900	-0.550450
O20	O	0.003600	0.468400	0.867500	-0.550450
O21	O	0.631500	0.514200	0.537400	-0.550450
O22	O	0.517600	0.493800	0.382600	-0.550450
O23	O	0.420100	0.373100	0.372200	-0.550450
O24	O	0.535200	0.399100	0.531600	-0.550450
O25	O	0.594100	0.976800	0.462600	-0.550450
O26	O	0.635000	0.111200	0.617400	-0.550450
O27	O	0.547900	0.000900	0.627800	-0.550450
O28	O	0.503600	0.867500	0.468400	-0.550450
O29	O	0.131500	0.537400	0.514200	-0.550450
O30	O	0.017600	0.382600	0.493800	-0.550450
O31	O	0.920100	0.372200	0.373100	-0.550450
O32	O	0.035200	0.531600	0.399100	-0.550450
O33	O	0.617300	0.485800	0.023200	-0.550450
O34	O	0.523800	0.506200	0.888800	-0.550450
O35	O	0.547000	0.626900	0.999100	-0.550450
O36	O	0.636100	0.600900	0.132500	-0.550450
O37	O	0.882700	0.976800	0.514200	-0.550450
O38	O	0.976200	0.111200	0.493800	-0.550450
O39	O	0.953000	0.000900	0.373100	-0.550450
O40	O	0.863900	0.867500	0.399100	-0.550450
O41	O	0.905900	0.537400	0.023200	-0.550450
O42	O	0.865000	0.382600	0.888800	-0.550450
O43	O	0.952100	0.372200	0.999100	-0.550450
O44	O	0.996400	0.531600	0.132500	-0.550450
O45	O	0.368500	0.485800	0.462600	-0.550450
O46	O	0.482400	0.506200	0.617400	-0.550450
O47	O	0.579900	0.626900	0.627800	-0.550450
O48	O	0.464800	0.600900	0.468400	-0.550450
