data_BELYIC_clean_PM
_symmetry_space_group_name_H-M	'P1'
_cell_length_a	8.587900
_cell_length_b	8.587900
_cell_length_c	20.863700
_cell_angle_alpha	100.896999
_cell_angle_beta	100.896999
_cell_angle_gamma	94.671400
_symmetry_Int_Tables_number 1

loop_
_symmetry_equiv_pos_as_xyz
'x,y,z'

loop_
_atom_site_label
_atom_site_type_symbol
_atom_site_fract_x
_atom_site_fract_y
_atom_site_fract_z
_atom_site_charge
Mg1	Mg	0.583130	0.710350	0.332660	1.568911
Mg2	Mg	0.289650	0.416870	0.667340	1.568911
Mg3	Mg	0.372310	0.999530	0.832660	1.568911
Mg4	Mg	0.000470	0.627690	0.167340	1.568911
Mg5	Mg	0.702730	0.297270	0.500000	1.568911
Mg6	Mg	0.952730	0.047270	0.000000	1.568911
H1	H	0.033100	0.041300	0.379600	0.158212
H2	H	0.970200	0.211400	0.397600	0.158212
H3	H	0.031800	0.119000	0.455600	0.158212
H4	H	0.989300	0.722100	0.421000	0.158212
H5	H	0.060800	0.555000	0.416600	0.158212
H6	H	0.950600	0.593400	0.352000	0.158212
H7	H	0.551900	0.353300	0.253600	0.158212
H8	H	0.639300	0.251100	0.201600	0.158212
H9	H	0.724700	0.303300	0.278800	0.158212
H10	H	0.958700	0.966900	0.620400	0.158212
H11	H	0.788600	0.029800	0.602400	0.158212
H12	H	0.881000	0.968200	0.544400	0.158212
H13	H	0.277900	0.010700	0.579000	0.158212
H14	H	0.445000	0.939200	0.583400	0.158212
H15	H	0.406600	0.049400	0.648000	0.158212
H16	H	0.646700	0.448100	0.746400	0.158212
H17	H	0.748900	0.360700	0.798400	0.158212
H18	H	0.696700	0.275300	0.721200	0.158212
H19	H	0.088300	0.596500	0.879600	0.158212
H20	H	0.936200	0.677400	0.897600	0.158212
H21	H	0.086600	0.673800	0.955600	0.158212
H22	H	0.448900	0.681700	0.921000	0.158212
H23	H	0.611600	0.605800	0.916600	0.158212
H24	H	0.508600	0.651400	0.852000	0.158212
H25	H	0.650300	0.951700	0.753600	0.158212
H26	H	0.700500	0.812300	0.701600	0.158212
H27	H	0.725500	0.804100	0.778800	0.158212
H28	H	0.403500	0.911700	0.120400	0.158212
H29	H	0.322600	0.063800	0.102400	0.158212
H30	H	0.326200	0.913400	0.044400	0.158212
H31	H	0.318300	0.551100	0.079000	0.158212
H32	H	0.394200	0.388400	0.083400	0.158212
H33	H	0.348600	0.491400	0.148000	0.158212
H34	H	0.048300	0.349700	0.246400	0.158212
H35	H	0.187700	0.299500	0.298400	0.158212
H36	H	0.195900	0.274500	0.221200	0.158212
C1	C	0.807700	0.023640	0.400320	0.858097
C2	C	0.975460	0.106080	0.409020	-0.546242
C3	C	0.821780	0.535060	0.419840	0.858097
C4	C	0.968560	0.607820	0.400700	-0.546242
C5	C	0.732580	0.488820	0.229080	0.858097
C6	C	0.655290	0.335610	0.241920	-0.546242
C7	C	0.976360	0.192300	0.599680	0.858097
C8	C	0.893920	0.024540	0.590980	-0.546242
C9	C	0.464940	0.178220	0.580160	0.858097
C10	C	0.392180	0.031440	0.599300	-0.546242
C11	C	0.511180	0.267420	0.770920	0.858097
C12	C	0.664390	0.344710	0.758080	-0.546242
C13	C	0.126680	0.842620	0.900320	0.858097
C14	C	0.052940	0.683560	0.909020	-0.546242
C15	C	0.634780	0.848060	0.919840	0.858097
C16	C	0.542880	0.682140	0.900700	-0.546242
C17	C	0.490260	0.746500	0.729080	0.858097
C18	C	0.656310	0.836630	0.741920	-0.546242
C19	C	0.157380	0.873320	0.099680	0.858097
C20	C	0.316440	0.947060	0.090980	-0.546242
C21	C	0.151940	0.365220	0.080160	0.858097
C22	C	0.317860	0.457120	0.099300	-0.546242
C23	C	0.253500	0.509740	0.270920	0.858097
C24	C	0.163370	0.343690	0.258080	-0.546242
O1	O	0.768530	0.892970	0.359200	-0.785473
O2	O	0.716220	0.088700	0.435340	-0.785473
O3	O	0.686450	0.569030	0.394100	-0.785473
O4	O	0.841960	0.444780	0.460680	-0.785473
O5	O	0.830840	0.477940	0.191720	-0.785473
O6	O	0.695070	0.620370	0.257640	-0.785473
O7	O	0.107030	0.231470	0.640800	-0.785473
O8	O	0.911300	0.283780	0.564660	-0.785473
O9	O	0.430970	0.313550	0.605900	-0.785473
O10	O	0.555220	0.158040	0.539320	-0.785473
O11	O	0.522060	0.169160	0.808280	-0.785473
O12	O	0.379630	0.304930	0.742360	-0.785473
O13	O	0.216230	0.840670	0.859200	-0.785473
O14	O	0.096640	0.969120	0.935340	-0.785473
O15	O	0.575070	0.957650	0.894100	-0.785473
O16	O	0.765900	0.868720	0.960680	-0.785473
O17	O	0.463780	0.610880	0.691720	-0.785473
O18	O	0.387270	0.812570	0.757640	-0.785473
O19	O	0.159330	0.783770	0.140800	-0.785473
O20	O	0.030880	0.903360	0.064660	-0.785473
O21	O	0.042350	0.424930	0.105900	-0.785473
O22	O	0.131280	0.234100	0.039320	-0.785473
O23	O	0.389120	0.536220	0.308280	-0.785473
O24	O	0.187430	0.612730	0.242360	-0.785473
