data_BONNIC_clean_PM
_symmetry_space_group_name_H-M	'P1'
_cell_length_a	10.429700
_cell_length_b	11.219000
_cell_length_c	11.219000
_cell_angle_alpha	98.508599
_cell_angle_beta	109.591998
_cell_angle_gamma	109.592002
_symmetry_Int_Tables_number 1

loop_
_symmetry_equiv_pos_as_xyz
'x,y,z'

loop_
_atom_site_label
_atom_site_type_symbol
_atom_site_fract_x
_atom_site_fract_y
_atom_site_fract_z
_atom_site_charge
Cd1	Cd	0.250940	0.974830	0.066750	0.872834
Cd2	Cd	0.750940	0.066750	0.974830	0.872834
H1	H	0.129300	0.209700	0.040100	0.080508
H2	H	0.178000	0.406100	0.984300	0.129194
H3	H	0.359800	0.474400	0.900800	0.095801
H4	H	0.418900	0.783500	0.032500	0.079426
H5	H	0.503000	0.637900	0.126500	0.131462
H6	H	0.299200	0.668800	0.370600	0.131462
H7	H	0.234500	0.822900	0.280500	0.079426
H8	H	0.388300	0.488000	0.352000	0.096584
H9	H	0.480400	0.484700	0.263100	0.096584
H10	H	0.681800	0.685600	0.421400	0.070841
H11	H	0.590800	0.679500	0.511700	0.070841
H12	H	0.709600	0.491200	0.457600	0.096584
H13	H	0.611600	0.478400	0.542600	0.096584
H14	H	0.949200	0.724700	0.550100	0.131462
H15	H	0.148000	0.874100	0.740900	0.079426
H16	H	0.956400	0.716600	0.961600	0.079426
H17	H	0.747900	0.567600	0.776800	0.131462
H18	H	0.629300	0.040100	0.209700	0.080508
H19	H	0.678000	0.984300	0.406100	0.129194
H20	H	0.859800	0.900800	0.474400	0.095801
H21	H	0.918900	0.032500	0.783500	0.079426
H22	H	0.003000	0.126500	0.637900	0.131462
H23	H	0.799200	0.370600	0.668800	0.131462
H24	H	0.734500	0.280500	0.822900	0.079426
H25	H	0.888300	0.352000	0.488000	0.096584
H26	H	0.980400	0.263100	0.484700	0.096584
H27	H	0.181800	0.421400	0.685600	0.070841
H28	H	0.090800	0.511700	0.679500	0.070841
H29	H	0.209600	0.457600	0.491200	0.096584
H30	H	0.111600	0.542600	0.478400	0.096584
H31	H	0.449200	0.550100	0.724700	0.131462
H32	H	0.648000	0.740900	0.874100	0.079426
H33	H	0.456400	0.961600	0.716600	0.079426
H34	H	0.247900	0.776800	0.567600	0.131462
C1	C	0.205000	0.238850	0.008650	0.177115
C2	C	0.232100	0.354840	0.974560	-0.184234
C3	C	0.340000	0.394990	0.925730	0.018268
C4	C	0.419900	0.319420	0.912860	-0.137746
C5	C	0.534200	0.368130	0.855070	0.602048
C6	C	0.389100	0.205770	0.954390	0.085366
C7	C	0.479800	0.123460	0.961400	0.616532
C8	C	0.397200	0.762010	0.104390	0.186195
C9	C	0.445600	0.672940	0.158460	-0.231119
C10	C	0.409100	0.635390	0.260290	0.156049
C11	C	0.328000	0.692390	0.302610	-0.231119
C12	C	0.288100	0.783400	0.247400	0.186195
C13	C	0.464100	0.543730	0.325870	-0.194129
C14	C	0.610300	0.624750	0.448050	-0.078687
C15	C	0.683100	0.542040	0.518160	-0.194129
C16	C	0.821700	0.630840	0.640760	0.156049
C17	C	0.946500	0.723120	0.633680	-0.231119
C18	C	0.065300	0.811450	0.748150	0.186195
C19	C	0.953000	0.720260	0.876540	0.186195
C20	C	0.828500	0.630010	0.766590	-0.231119
C21	C	0.705000	0.008650	0.238850	0.177115
C22	C	0.732100	0.974560	0.354840	-0.184234
C23	C	0.840000	0.925730	0.394990	0.018268
C24	C	0.919900	0.912860	0.319420	-0.137746
C25	C	0.034200	0.855070	0.368130	0.602048
C26	C	0.889100	0.954390	0.205770	0.085366
C27	C	0.979800	0.961400	0.123460	0.616532
C28	C	0.897200	0.104390	0.762010	0.186195
C29	C	0.945600	0.158460	0.672940	-0.231119
C30	C	0.909100	0.260290	0.635390	0.156049
C31	C	0.828000	0.302610	0.692390	-0.231119
C32	C	0.788100	0.247400	0.783400	0.186195
C33	C	0.964100	0.325870	0.543730	-0.194129
C34	C	0.110300	0.448050	0.624750	-0.078687
C35	C	0.183100	0.518160	0.542040	-0.194129
C36	C	0.321700	0.640760	0.630840	0.156049
C37	C	0.446500	0.633680	0.723120	-0.231119
C38	C	0.565300	0.748150	0.811450	0.186195
C39	C	0.453000	0.876540	0.720260	0.186195
C40	C	0.328500	0.766590	0.630010	-0.231119
N1	N	0.281200	0.165340	0.999220	-0.352798
N2	N	0.321900	0.818660	0.148700	-0.349447
N3	N	0.069600	0.813070	0.869330	-0.349447
N4	N	0.781200	0.999220	0.165340	-0.352798
N5	N	0.821900	0.148700	0.818660	-0.349447
N6	N	0.569600	0.869330	0.813070	-0.349447
O1	O	0.438830	0.018200	0.990680	-0.595137
O2	O	0.594870	0.170700	0.939900	-0.595137
O3	O	0.655210	0.463240	0.931520	-0.575373
O4	O	0.493900	0.316680	0.734840	-0.575373
O5	O	0.938830	0.990680	0.018200	-0.595137
O6	O	0.094870	0.939900	0.170700	-0.595137
O7	O	0.155210	0.931520	0.463240	-0.575373
O8	O	0.993900	0.734840	0.316680	-0.575373
