data_BUSGIG_clean_PM
_symmetry_space_group_name_H-M	'P1'
_cell_length_a	9.175000
_cell_length_b	9.493000
_cell_length_c	21.510000
_cell_angle_alpha	90.000000
_cell_angle_beta	90.000000
_cell_angle_gamma	116.483001
_symmetry_Int_Tables_number 1

loop_
_symmetry_equiv_pos_as_xyz
'x,y,z'

loop_
_atom_site_label
_atom_site_type_symbol
_atom_site_fract_x
_atom_site_fract_y
_atom_site_fract_z
_atom_site_charge
Dy1	Dy	0.124840	0.357450	0.991730	2.245939
Dy2	Dy	0.375160	0.642550	0.491730	2.245939
Dy3	Dy	0.875160	0.642550	0.008270	2.245939
Dy4	Dy	0.624840	0.357450	0.508270	2.245939
Cu1	Cu	0.461580	0.308230	0.853610	0.484874
Cu2	Cu	0.038420	0.691770	0.353610	0.484874
Cu3	Cu	0.538420	0.691770	0.146390	0.484874
Cu4	Cu	0.961580	0.308230	0.646390	0.484874
H1	H	0.707100	0.973200	0.069200	0.079187
H2	H	0.445200	0.209000	0.070400	0.098149
H3	H	0.004400	0.345000	0.777500	0.079187
H4	H	0.854200	0.731700	0.730300	0.129160
H5	H	0.892400	0.686800	0.833600	0.098149
H6	H	0.244700	0.004900	0.124000	0.129160
H7	H	0.294600	0.802400	0.158600	0.083422
H8	H	0.875300	0.571700	0.654900	0.083422
H9	H	0.792900	0.026800	0.569200	0.079187
H10	H	0.054800	0.791000	0.570400	0.098149
H11	H	0.495600	0.655000	0.277500	0.079187
H12	H	0.645800	0.268300	0.230300	0.129160
H13	H	0.607600	0.313200	0.333600	0.098149
H14	H	0.255300	0.995100	0.624000	0.129160
H15	H	0.205400	0.197600	0.658600	0.083422
H16	H	0.624700	0.428300	0.154900	0.083422
H17	H	0.292900	0.026800	0.930800	0.079187
H18	H	0.554800	0.791000	0.929600	0.098149
H19	H	0.995600	0.655000	0.222500	0.079187
H20	H	0.145800	0.268300	0.269700	0.129160
H21	H	0.107600	0.313200	0.166400	0.098149
H22	H	0.755300	0.995100	0.876000	0.129160
H23	H	0.705400	0.197600	0.841400	0.083422
H24	H	0.124700	0.428300	0.345100	0.083422
H25	H	0.207100	0.973200	0.430800	0.079187
H26	H	0.945200	0.209000	0.429600	0.098149
H27	H	0.504400	0.345000	0.722500	0.079187
H28	H	0.354200	0.731700	0.769700	0.129160
H29	H	0.392400	0.686800	0.666400	0.098149
H30	H	0.744700	0.004900	0.376000	0.129160
H31	H	0.794600	0.802400	0.341400	0.083422
H32	H	0.375300	0.571700	0.845100	0.083422
C1	C	0.011900	0.008100	0.035500	0.545237
C2	C	0.732600	0.243200	0.028000	0.760590
C3	C	0.986700	0.477500	0.881600	0.760590
C4	C	0.597100	0.112000	0.064300	-0.226634
C5	C	0.614500	0.981700	0.082000	0.194864
C6	C	0.459600	0.121300	0.081300	0.059964
C7	C	0.970800	0.421600	0.768100	0.194864
C8	C	0.881400	0.651400	0.741100	-0.177945
C9	C	0.906300	0.626300	0.802300	0.059964
C10	C	0.342400	0.002400	0.114400	-0.177945
C11	C	0.371000	0.879400	0.133300	0.158921
C12	C	0.952200	0.509600	0.816600	-0.226634
C13	C	0.897000	0.556400	0.695900	0.158921
C14	C	0.502500	0.478100	0.966400	0.554196
C15	C	0.488100	0.991900	0.535500	0.545237
C16	C	0.767400	0.756800	0.528000	0.760590
C17	C	0.513300	0.522500	0.381600	0.760590
C18	C	0.902900	0.888000	0.564300	-0.226634
C19	C	0.885500	0.018300	0.582000	0.194864
C20	C	0.040400	0.878700	0.581300	0.059964
C21	C	0.529200	0.578400	0.268100	0.194864
C22	C	0.618600	0.348600	0.241100	-0.177945
C23	C	0.593700	0.373700	0.302300	0.059964
C24	C	0.157600	0.997600	0.614400	-0.177945
C25	C	0.129000	0.120600	0.633300	0.158921
C26	C	0.547800	0.490400	0.316600	-0.226634
C27	C	0.603000	0.443600	0.195900	0.158921
C28	C	0.997500	0.521900	0.466400	0.554196
C29	C	0.988100	0.991900	0.964500	0.545237
C30	C	0.267400	0.756800	0.972000	0.760590
C31	C	0.013300	0.522500	0.118400	0.760590
C32	C	0.402900	0.888000	0.935700	-0.226634
C33	C	0.385500	0.018300	0.918000	0.194864
C34	C	0.540400	0.878700	0.918700	0.059964
C35	C	0.029200	0.578400	0.231900	0.194864
C36	C	0.118600	0.348600	0.258900	-0.177945
C37	C	0.093700	0.373700	0.197700	0.059964
C38	C	0.657600	0.997600	0.885600	-0.177945
C39	C	0.629000	0.120600	0.866700	0.158921
C40	C	0.047800	0.490400	0.183400	-0.226634
C41	C	0.103000	0.443600	0.304100	0.158921
C42	C	0.497500	0.521900	0.033600	0.554196
C43	C	0.511900	0.008100	0.464500	0.545237
C44	C	0.232600	0.243200	0.472000	0.760590
C45	C	0.486700	0.477500	0.618400	0.760590
C46	C	0.097100	0.112000	0.435700	-0.226634
C47	C	0.114500	0.981700	0.418000	0.194864
C48	C	0.959600	0.121300	0.418700	0.059964
C49	C	0.470800	0.421600	0.731900	0.194864
C50	C	0.381400	0.651400	0.758900	-0.177945
C51	C	0.406300	0.626300	0.697700	0.059964
C52	C	0.842400	0.002400	0.385600	-0.177945
C53	C	0.871000	0.879400	0.366700	0.158921
C54	C	0.452200	0.509600	0.683400	-0.226634
C55	C	0.397000	0.556400	0.804100	0.158921
C56	C	0.002500	0.478100	0.533600	0.554196
N1	N	0.504300	0.865300	0.116900	-0.304895
N2	N	0.942400	0.442100	0.708200	-0.304895
N3	N	0.995700	0.134700	0.616900	-0.304895
N4	N	0.557600	0.557900	0.208200	-0.304895
N5	N	0.495700	0.134700	0.883100	-0.304895
N6	N	0.057600	0.557900	0.291800	-0.304895
N7	N	0.004300	0.865300	0.383100	-0.304895
N8	N	0.442400	0.442100	0.791800	-0.304895
O1	O	0.839600	0.214800	0.003860	-0.726640
O2	O	0.369700	0.382400	0.942120	-0.667802
O3	O	0.089800	0.144000	0.056960	-0.669763
O4	O	0.053700	0.390000	0.889440	-0.726640
O5	O	0.945800	0.540300	0.924570	-0.726640
O6	O	0.724500	0.371300	0.028100	-0.726640
O7	O	0.948400	0.882700	0.065830	-0.669763
O8	O	0.636200	0.539100	0.939020	-0.625923
O9	O	0.660400	0.785200	0.503860	-0.726640
O10	O	0.130300	0.617600	0.442120	-0.667802
O11	O	0.410200	0.856000	0.556960	-0.669763
O12	O	0.446300	0.610000	0.389440	-0.726640
O13	O	0.554200	0.459700	0.424570	-0.726640
O14	O	0.775500	0.628700	0.528100	-0.726640
O15	O	0.551600	0.117300	0.565830	-0.669763
O16	O	0.863800	0.460900	0.439020	-0.625923
O17	O	0.160400	0.785200	0.996140	-0.726640
O18	O	0.630300	0.617600	0.057880	-0.667802
O19	O	0.910200	0.856000	0.943040	-0.669763
O20	O	0.946300	0.610000	0.110560	-0.726640
O21	O	0.054200	0.459700	0.075430	-0.726640
O22	O	0.275500	0.628700	0.971900	-0.726640
O23	O	0.051600	0.117300	0.934170	-0.669763
O24	O	0.363800	0.460900	0.060980	-0.625923
O25	O	0.339600	0.214800	0.496140	-0.726640
O26	O	0.869700	0.382400	0.557880	-0.667802
O27	O	0.589800	0.144000	0.443040	-0.669763
O28	O	0.553700	0.390000	0.610560	-0.726640
O29	O	0.445800	0.540300	0.575430	-0.726640
O30	O	0.224500	0.371300	0.471900	-0.726640
O31	O	0.448400	0.882700	0.434170	-0.669763
O32	O	0.136200	0.539100	0.560980	-0.625923
