data_BUSQEM_clean_PM
_symmetry_space_group_name_H-M	'P1'
_cell_length_a	11.616000
_cell_length_b	12.503000
_cell_length_c	14.891000
_cell_angle_alpha	90.000000
_cell_angle_beta	90.000000
_cell_angle_gamma	90.000000
_symmetry_Int_Tables_number 1

loop_
_symmetry_equiv_pos_as_xyz
'x,y,z'

loop_
_atom_site_label
_atom_site_type_symbol
_atom_site_fract_x
_atom_site_fract_y
_atom_site_fract_z
_atom_site_charge
Mn1	Mn	0.500000	0.500000	0.250000	0.646389
Mn2	Mn	0.500000	0.500000	0.750000	0.646389
H1	H	0.300600	0.782600	0.364100	0.104520
H2	H	0.163500	0.918000	0.364800	0.106203
H3	H	0.286000	0.651900	0.218700	0.075209
H4	H	0.086700	0.657100	0.219200	0.128444
H5	H	0.699400	0.217400	0.364100	0.104520
H6	H	0.836500	0.082000	0.364800	0.106203
H7	H	0.714000	0.348100	0.218700	0.075209
H8	H	0.913300	0.342900	0.219200	0.128444
H9	H	0.699400	0.782600	0.135900	0.104520
H10	H	0.836500	0.918000	0.135200	0.106203
H11	H	0.714000	0.651900	0.281300	0.075209
H12	H	0.913300	0.657100	0.280800	0.128444
H13	H	0.300600	0.217400	0.135900	0.104520
H14	H	0.163500	0.082000	0.135200	0.106203
H15	H	0.286000	0.348100	0.281300	0.075209
H16	H	0.086700	0.342900	0.280800	0.128444
H17	H	0.699400	0.217400	0.635900	0.104520
H18	H	0.836500	0.082000	0.635200	0.106203
H19	H	0.714000	0.348100	0.781300	0.075209
H20	H	0.913300	0.342900	0.780800	0.128444
H21	H	0.300600	0.782600	0.635900	0.104520
H22	H	0.163500	0.918000	0.635200	0.106203
H23	H	0.286000	0.651900	0.781300	0.075209
H24	H	0.086700	0.657100	0.780800	0.128444
H25	H	0.300600	0.217400	0.864100	0.104520
H26	H	0.163500	0.082000	0.864800	0.106203
H27	H	0.286000	0.348100	0.718700	0.075209
H28	H	0.086700	0.342900	0.719200	0.128444
H29	H	0.699400	0.782600	0.864100	0.104520
H30	H	0.836500	0.918000	0.864800	0.106203
H31	H	0.714000	0.651900	0.718700	0.075209
H32	H	0.913300	0.657100	0.719200	0.128444
C1	C	0.463200	0.658300	0.420200	0.430896
C2	C	0.275700	0.812000	0.419600	-0.117221
C3	C	0.194200	0.892600	0.420000	-0.118353
C4	C	0.077100	0.092000	0.420300	0.275379
C5	C	0.244900	0.588200	0.232200	0.180135
C6	C	0.125700	0.592000	0.231900	-0.196365
C7	C	0.536800	0.341700	0.420200	0.430896
C8	C	0.724300	0.188000	0.419600	-0.117221
C9	C	0.805800	0.107400	0.420000	-0.118353
C10	C	0.922900	0.908000	0.420300	0.275379
C11	C	0.755100	0.411800	0.232200	0.180135
C12	C	0.874300	0.408000	0.231900	-0.196365
C13	C	0.536800	0.658300	0.079800	0.430896
C14	C	0.724300	0.812000	0.080400	-0.117221
C15	C	0.805800	0.892600	0.080000	-0.118353
C16	C	0.922900	0.092000	0.079700	0.275379
C17	C	0.755100	0.588200	0.267800	0.180135
C18	C	0.874300	0.592000	0.268100	-0.196365
C19	C	0.463200	0.341700	0.079800	0.430896
C20	C	0.275700	0.188000	0.080400	-0.117221
C21	C	0.194200	0.107400	0.080000	-0.118353
C22	C	0.077100	0.908000	0.079700	0.275379
C23	C	0.244900	0.411800	0.267800	0.180135
C24	C	0.125700	0.408000	0.268100	-0.196365
C25	C	0.536800	0.341700	0.579800	0.430896
C26	C	0.724300	0.188000	0.580400	-0.117221
C27	C	0.805800	0.107400	0.580000	-0.118353
C28	C	0.922900	0.908000	0.579700	0.275379
C29	C	0.755100	0.411800	0.767800	0.180135
C30	C	0.874300	0.408000	0.768100	-0.196365
C31	C	0.463200	0.658300	0.579800	0.430896
C32	C	0.275700	0.812000	0.580400	-0.117221
C33	C	0.194200	0.892600	0.580000	-0.118353
C34	C	0.077100	0.092000	0.579700	0.275379
C35	C	0.244900	0.588200	0.767800	0.180135
C36	C	0.125700	0.592000	0.768100	-0.196365
C37	C	0.463200	0.341700	0.920200	0.430896
C38	C	0.275700	0.188000	0.919600	-0.117221
C39	C	0.194200	0.107400	0.920000	-0.118353
C40	C	0.077100	0.908000	0.920300	0.275379
C41	C	0.244900	0.411800	0.732200	0.180135
C42	C	0.125700	0.408000	0.731900	-0.196365
C43	C	0.536800	0.658300	0.920200	0.430896
C44	C	0.724300	0.812000	0.919600	-0.117221
C45	C	0.805800	0.892600	0.920000	-0.118353
C46	C	0.922900	0.092000	0.920300	0.275379
C47	C	0.755100	0.588200	0.732200	0.180135
C48	C	0.874300	0.592000	0.731900	-0.196365
C49	C	0.064200	0.500000	0.250000	0.088649
C50	C	0.935800	0.500000	0.250000	0.088649
C51	C	0.935800	0.500000	0.750000	0.088649
C52	C	0.064200	0.500000	0.750000	0.088649
C53	C	0.417300	0.697900	0.500000	-0.418374
C54	C	0.323200	0.773600	0.500000	0.116965
C55	C	0.156500	0.936200	0.500000	0.075960
C56	C	0.063800	0.027200	0.500000	-0.007906
C57	C	0.582700	0.302100	0.500000	-0.418374
C58	C	0.676800	0.226400	0.500000	0.116965
C59	C	0.843500	0.063800	0.500000	0.075960
C60	C	0.936200	0.972800	0.500000	-0.007906
C61	C	0.582700	0.697900	0.000000	-0.418374
C62	C	0.676800	0.773600	0.000000	0.116965
C63	C	0.843500	0.936200	0.000000	0.075960
C64	C	0.936200	0.027200	0.000000	-0.007906
C65	C	0.417300	0.302100	0.000000	-0.418374
C66	C	0.323200	0.226400	0.000000	0.116965
C67	C	0.156500	0.063800	0.000000	0.075960
C68	C	0.063800	0.972800	0.000000	-0.007906
N1	N	0.501400	0.625300	0.354200	-0.446966
N2	N	0.094100	0.139600	0.357300	-0.361531
N3	N	0.498600	0.374700	0.354200	-0.446966
N4	N	0.905900	0.860400	0.357300	-0.361531
N5	N	0.498600	0.625300	0.145800	-0.446966
N6	N	0.905900	0.139600	0.142700	-0.361531
N7	N	0.501400	0.374700	0.145800	-0.446966
N8	N	0.094100	0.860400	0.142700	-0.361531
N9	N	0.498600	0.374700	0.645800	-0.446966
N10	N	0.905900	0.860400	0.642700	-0.361531
N11	N	0.501400	0.625300	0.645800	-0.446966
N12	N	0.094100	0.139600	0.642700	-0.361531
N13	N	0.501400	0.374700	0.854200	-0.446966
N14	N	0.094100	0.860400	0.857300	-0.361531
N15	N	0.498600	0.625300	0.854200	-0.446966
N16	N	0.905900	0.139600	0.857300	-0.361531
N17	N	0.304500	0.500000	0.250000	-0.299190
N18	N	0.695500	0.500000	0.250000	-0.299190
N19	N	0.695500	0.500000	0.750000	-0.299190
N20	N	0.304500	0.500000	0.750000	-0.299190
