data_BUWGEG_clean_PM
_symmetry_space_group_name_H-M	'P1'
_cell_length_a	4.651000
_cell_length_b	10.812000
_cell_length_c	34.683000
_cell_angle_alpha	90.000000
_cell_angle_beta	90.000000
_cell_angle_gamma	95.800002
_symmetry_Int_Tables_number 1

loop_
_symmetry_equiv_pos_as_xyz
'x,y,z'

loop_
_atom_site_label
_atom_site_type_symbol
_atom_site_fract_x
_atom_site_fract_y
_atom_site_fract_z
_atom_site_charge
Cu1	Cu	0.083950	0.114710	0.802050	0.832108
Cu2	Cu	0.916050	0.385290	0.302050	0.832108
Cu3	Cu	0.916050	0.885290	0.197950	0.832108
Cu4	Cu	0.083950	0.614710	0.697950	0.832108
H1	H	0.949600	0.069800	0.720700	0.113302
H2	H	0.143600	0.145700	0.660800	0.101209
H3	H	0.053300	0.133400	0.938100	0.131942
H4	H	0.189800	0.179300	0.874500	0.087177
H5	H	0.506600	0.969000	0.833700	0.087177
H6	H	0.304700	0.957500	0.896000	0.131942
H7	H	0.050400	0.430200	0.220700	0.113302
H8	H	0.856400	0.354300	0.160800	0.101209
H9	H	0.946700	0.366600	0.438100	0.131942
H10	H	0.810200	0.320700	0.374500	0.087177
H11	H	0.493400	0.531000	0.333700	0.087177
H12	H	0.695300	0.542500	0.396000	0.131942
H13	H	0.050400	0.930200	0.279300	0.113302
H14	H	0.856400	0.854300	0.339200	0.101209
H15	H	0.946700	0.866600	0.061900	0.131942
H16	H	0.810200	0.820700	0.125500	0.087177
H17	H	0.493400	0.031000	0.166300	0.087177
H18	H	0.695300	0.042500	0.104000	0.131942
H19	H	0.949600	0.569800	0.779300	0.113302
H20	H	0.143600	0.645700	0.839200	0.101209
H21	H	0.053300	0.633400	0.561900	0.131942
H22	H	0.189800	0.679300	0.625500	0.087177
H23	H	0.506600	0.469000	0.666300	0.087177
H24	H	0.304700	0.457500	0.604000	0.131942
C1	C	0.429200	0.367670	0.789810	0.592576
C2	C	0.339800	0.303310	0.750850	0.068458
C3	C	0.088810	0.138140	0.718930	0.102822
C4	C	0.186990	0.193360	0.684350	0.133186
C5	C	0.432680	0.356240	0.715640	0.092300
C6	C	0.626020	0.478740	0.713790	0.629480
C7	C	0.939670	0.098510	0.916740	-0.147270
C8	C	0.031870	0.116630	0.877850	0.170906
C9	C	0.615620	0.998430	0.855030	0.170906
C10	C	0.502430	0.994120	0.892050	-0.147270
C11	C	0.676540	0.026150	0.922500	0.052557
C12	C	0.559080	0.012690	0.963220	0.328260
C13	C	0.570800	0.132330	0.289810	0.592576
C14	C	0.660200	0.196690	0.250850	0.068458
C15	C	0.911190	0.361860	0.218930	0.102822
C16	C	0.813010	0.306640	0.184350	0.133186
C17	C	0.567320	0.143760	0.215640	0.092300
C18	C	0.373980	0.021260	0.213790	0.629480
C19	C	0.060330	0.401490	0.416740	-0.147270
C20	C	0.968130	0.383370	0.377850	0.170906
C21	C	0.384380	0.501570	0.355030	0.170906
C22	C	0.497570	0.505880	0.392050	-0.147270
C23	C	0.323460	0.473850	0.422500	0.052557
C24	C	0.440920	0.487310	0.463220	0.328260
C25	C	0.570800	0.632330	0.210190	0.592576
C26	C	0.660200	0.696690	0.249150	0.068458
C27	C	0.911190	0.861860	0.281070	0.102822
C28	C	0.813010	0.806640	0.315650	0.133186
C29	C	0.567320	0.643760	0.284360	0.092300
C30	C	0.373980	0.521260	0.286210	0.629480
C31	C	0.060330	0.901490	0.083260	-0.147270
C32	C	0.968130	0.883370	0.122150	0.170906
C33	C	0.384380	0.001570	0.144970	0.170906
C34	C	0.497570	0.005880	0.107950	-0.147270
C35	C	0.323460	0.973850	0.077500	0.052557
C36	C	0.440920	0.987310	0.036780	0.328260
C37	C	0.429200	0.867670	0.710190	0.592576
C38	C	0.339800	0.803310	0.749150	0.068458
C39	C	0.088810	0.638140	0.781070	0.102822
C40	C	0.186990	0.693360	0.815650	0.133186
C41	C	0.432680	0.856240	0.784360	0.092300
C42	C	0.626020	0.978740	0.786210	0.629480
C43	C	0.939670	0.598510	0.583260	-0.147270
C44	C	0.031870	0.616630	0.622150	0.170906
C45	C	0.615620	0.498430	0.644970	0.170906
C46	C	0.502430	0.494120	0.607950	-0.147270
C47	C	0.676540	0.526150	0.577500	0.052557
C48	C	0.559080	0.512690	0.536780	0.328260
N1	N	0.185280	0.193820	0.752250	-0.264923
N2	N	0.345100	0.300350	0.682720	-0.338496
N3	N	0.883590	0.053150	0.848700	-0.298807
N4	N	0.551650	0.114020	0.985620	-0.236387
N5	N	0.472100	0.899900	0.976810	-0.236387
N6	N	0.814720	0.306180	0.252250	-0.264923
N7	N	0.654900	0.199650	0.182720	-0.338496
N8	N	0.116410	0.446850	0.348700	-0.298807
N9	N	0.448350	0.385980	0.485620	-0.236387
N10	N	0.527900	0.600100	0.476810	-0.236387
N11	N	0.814720	0.806180	0.247750	-0.264923
N12	N	0.654900	0.699650	0.317280	-0.338496
N13	N	0.116410	0.946850	0.151300	-0.298807
N14	N	0.448350	0.885980	0.014380	-0.236387
N15	N	0.527900	0.100100	0.023190	-0.236387
N16	N	0.185280	0.693820	0.747750	-0.264923
N17	N	0.345100	0.800350	0.817280	-0.338496
N18	N	0.883590	0.553150	0.651300	-0.298807
N19	N	0.551650	0.614020	0.514380	-0.236387
N20	N	0.472100	0.399900	0.523190	-0.236387
O1	O	0.317090	0.279850	0.810220	-0.555524
O2	O	0.504870	0.474490	0.800650	-0.525445
O3	O	0.549230	0.563680	0.696710	-0.537898
O4	O	0.877510	0.487360	0.729190	-0.537898
O5	O	0.682910	0.220150	0.310220	-0.555524
O6	O	0.495130	0.025510	0.300650	-0.525445
O7	O	0.450770	0.936320	0.196710	-0.537898
O8	O	0.122490	0.012640	0.229190	-0.537898
O9	O	0.682910	0.720150	0.189780	-0.555524
O10	O	0.495130	0.525510	0.199350	-0.525445
O11	O	0.450770	0.436320	0.303290	-0.537898
O12	O	0.122490	0.512640	0.270810	-0.537898
O13	O	0.317090	0.779850	0.689780	-0.555524
O14	O	0.504870	0.974490	0.699350	-0.525445
O15	O	0.549230	0.063680	0.803290	-0.537898
O16	O	0.877510	0.987360	0.770810	-0.537898
