data_CAKFEB_clean_PM
_symmetry_space_group_name_H-M	'P1'
_cell_length_a	10.110000
_cell_length_b	13.987000
_cell_length_c	21.835000
_cell_angle_alpha	91.620000
_cell_angle_beta	90.000000
_cell_angle_gamma	90.000000
_symmetry_Int_Tables_number 1

loop_
_symmetry_equiv_pos_as_xyz
'x,y,z'

loop_
_atom_site_label
_atom_site_type_symbol
_atom_site_fract_x
_atom_site_fract_y
_atom_site_fract_z
_atom_site_charge
Gd1	Gd	0.436660	0.768720	0.759750	2.179278
Gd2	Gd	0.250150	0.027000	0.748680	2.155311
Gd3	Gd	0.936660	0.731280	0.240250	2.179278
Gd4	Gd	0.750150	0.473000	0.251320	2.155311
Gd5	Gd	0.563340	0.231280	0.240250	2.179278
Gd6	Gd	0.749850	0.973000	0.251320	2.155311
Gd7	Gd	0.063340	0.268720	0.759750	2.179278
Gd8	Gd	0.249850	0.527000	0.748680	2.155311
H1	H	0.712000	0.810500	0.456700	0.107160
H2	H	0.141100	0.866000	0.034900	0.107160
H3	H	0.117100	0.721900	0.839300	0.149392
H4	H	0.984400	0.762200	0.812900	0.149392
H5	H	0.823400	0.818500	0.885400	0.107160
H6	H	0.646700	0.882600	0.547600	0.107160
H7	H	0.202400	0.810200	0.938500	0.107160
H8	H	0.270800	0.866000	0.493800	0.107160
H9	H	0.458100	0.988200	0.596000	0.149392
H10	H	0.315100	0.948300	0.585700	0.149392
H11	H	0.764700	0.873500	0.982300	0.107160
H12	H	0.336800	0.791300	0.403300	0.107160
H13	H	0.902200	0.904800	0.571400	0.107160
H14	H	0.038500	0.160000	0.522600	0.107160
H15	H	0.850000	0.050000	0.633500	0.149392
H16	H	0.913100	0.147800	0.616100	0.149392
H17	H	0.501700	0.712800	0.341700	0.149392
H18	H	0.641500	0.695700	0.370500	0.149392
H19	H	0.962800	0.972000	0.090100	0.149392
H20	H	0.816600	0.941400	0.076900	0.149392
H21	H	0.698400	0.988900	0.876300	0.146174
H22	H	0.631400	0.089700	0.871800	0.146174
H23	H	0.583300	0.146000	0.972200	0.107160
H24	H	0.501100	0.872200	0.931100	0.107160
H25	H	0.212000	0.689500	0.543300	0.107160
H26	H	0.641100	0.634000	0.965100	0.107160
H27	H	0.617100	0.778100	0.160700	0.149392
H28	H	0.484400	0.737800	0.187100	0.149392
H29	H	0.323400	0.681500	0.114600	0.107160
H30	H	0.146700	0.617400	0.452400	0.107160
H31	H	0.702400	0.689800	0.061500	0.107160
H32	H	0.770800	0.634000	0.506200	0.107160
H33	H	0.958100	0.511800	0.404000	0.149392
H34	H	0.815100	0.551700	0.414300	0.149392
H35	H	0.264700	0.626500	0.017700	0.107160
H36	H	0.836800	0.708700	0.596700	0.107160
H37	H	0.402200	0.595200	0.428600	0.107160
H38	H	0.538500	0.340000	0.477400	0.107160
H39	H	0.350000	0.450000	0.366500	0.149392
H40	H	0.413100	0.352200	0.383900	0.149392
H41	H	0.001700	0.787200	0.658300	0.149392
H42	H	0.141500	0.804300	0.629500	0.149392
H43	H	0.462800	0.528000	0.909900	0.149392
H44	H	0.316600	0.558600	0.923100	0.149392
H45	H	0.198400	0.511100	0.123700	0.146174
H46	H	0.131400	0.410300	0.128200	0.146174
H47	H	0.083300	0.354000	0.027800	0.107160
H48	H	0.001100	0.627800	0.068900	0.107160
H49	H	0.288000	0.189500	0.543300	0.107160
H50	H	0.858900	0.134000	0.965100	0.107160
H51	H	0.882900	0.278100	0.160700	0.149392
H52	H	0.015600	0.237800	0.187100	0.149392
H53	H	0.176600	0.181500	0.114600	0.107160
H54	H	0.353300	0.117400	0.452400	0.107160
H55	H	0.797600	0.189800	0.061500	0.107160
H56	H	0.729200	0.134000	0.506200	0.107160
H57	H	0.541900	0.011800	0.404000	0.149392
H58	H	0.684900	0.051700	0.414300	0.149392
H59	H	0.235300	0.126500	0.017700	0.107160
H60	H	0.663200	0.208700	0.596700	0.107160
H61	H	0.097800	0.095200	0.428600	0.107160
H62	H	0.961500	0.840000	0.477400	0.107160
H63	H	0.150000	0.950000	0.366500	0.149392
H64	H	0.086900	0.852200	0.383900	0.149392
H65	H	0.498300	0.287200	0.658300	0.149392
H66	H	0.358500	0.304300	0.629500	0.149392
H67	H	0.037200	0.028000	0.909900	0.149392
H68	H	0.183400	0.058600	0.923100	0.149392
H69	H	0.301600	0.011100	0.123700	0.146174
H70	H	0.368600	0.910300	0.128200	0.146174
H71	H	0.416700	0.854000	0.027800	0.107160
H72	H	0.498900	0.127800	0.068900	0.107160
H73	H	0.788000	0.310500	0.456700	0.107160
H74	H	0.358900	0.366000	0.034900	0.107160
H75	H	0.382900	0.221900	0.839300	0.149392
H76	H	0.515600	0.262200	0.812900	0.149392
H77	H	0.676600	0.318500	0.885400	0.107160
H78	H	0.853300	0.382600	0.547600	0.107160
H79	H	0.297600	0.310200	0.938500	0.107160
H80	H	0.229200	0.366000	0.493800	0.107160
H81	H	0.041900	0.488200	0.596000	0.149392
H82	H	0.184900	0.448300	0.585700	0.149392
H83	H	0.735300	0.373500	0.982300	0.107160
H84	H	0.163200	0.291300	0.403300	0.107160
H85	H	0.597800	0.404800	0.571400	0.107160
H86	H	0.461500	0.660000	0.522600	0.107160
H87	H	0.650000	0.550000	0.633500	0.149392
H88	H	0.586900	0.647800	0.616100	0.149392
H89	H	0.998300	0.212800	0.341700	0.149392
H90	H	0.858500	0.195700	0.370500	0.149392
H91	H	0.537200	0.472000	0.090100	0.149392
H92	H	0.683400	0.441400	0.076900	0.149392
H93	H	0.801600	0.488900	0.876300	0.146174
H94	H	0.868600	0.589700	0.871800	0.146174
H95	H	0.916700	0.646000	0.972200	0.107160
H96	H	0.998900	0.372200	0.931100	0.107160
C1	C	0.137600	0.857600	0.807450	0.795592
C2	C	0.419800	0.872100	0.647370	0.799306
C3	C	0.451100	0.881100	0.531280	0.123522
C4	C	0.531400	0.792400	0.420500	0.123522
C5	C	0.622400	0.820800	0.464050	-0.127793
C6	C	0.076900	0.857000	0.004740	-0.127793
C7	C	0.061900	0.778500	0.837190	-0.387597
C8	C	0.020000	0.810700	0.901160	0.123522
C9	C	0.888200	0.828600	0.915080	-0.127793
C10	C	0.583100	0.864300	0.518740	-0.127793
C11	C	0.947300	0.876800	0.018380	0.123522
C12	C	0.114100	0.823700	0.946740	-0.127793
C13	C	0.360200	0.854200	0.486940	-0.127793
C14	C	0.407000	0.929900	0.590160	-0.387100
C15	C	0.853200	0.861500	0.973380	-0.127793
C16	C	0.399900	0.809700	0.432260	-0.127793
C17	C	0.636000	0.813700	0.317980	0.795592
C18	C	0.941600	0.943400	0.542630	-0.127793
C19	C	0.963700	0.039400	0.557140	0.123522
C20	C	0.037600	0.066300	0.666060	0.795592
C21	C	0.022700	0.095600	0.513720	-0.127793
C22	C	0.930500	0.080000	0.619290	-0.387597
C23	C	0.911500	0.850900	0.132910	0.799306
C24	C	0.576600	0.744300	0.361360	-0.387597
C25	C	0.906400	0.917600	0.080250	-0.387100
C26	C	0.523600	0.983400	0.828570	0.819992
C27	C	0.614500	0.022500	0.878390	-0.391692
C28	C	0.553800	0.011100	0.941250	0.121962
C29	C	0.550300	0.086800	0.983170	-0.127793
C30	C	0.501400	0.923900	0.958790	-0.127793
C31	C	0.637600	0.642400	0.192550	0.795592
C32	C	0.919800	0.627900	0.352630	0.799306
C33	C	0.951100	0.618900	0.468720	0.123522
C34	C	0.031400	0.707600	0.579500	0.123522
C35	C	0.122400	0.679200	0.535950	-0.127793
C36	C	0.576900	0.643000	0.995260	-0.127793
C37	C	0.561900	0.721500	0.162810	-0.387597
C38	C	0.520000	0.689300	0.098840	0.123522
C39	C	0.388200	0.671400	0.084920	-0.127793
C40	C	0.083100	0.635700	0.481260	-0.127793
C41	C	0.447300	0.623200	0.981620	0.123522
C42	C	0.614100	0.676300	0.053260	-0.127793
C43	C	0.860200	0.645800	0.513060	-0.127793
C44	C	0.907000	0.570100	0.409840	-0.387100
C45	C	0.353200	0.638500	0.026620	-0.127793
C46	C	0.899900	0.690300	0.567740	-0.127793
C47	C	0.136000	0.686300	0.682020	0.795592
C48	C	0.441600	0.556600	0.457370	-0.127793
C49	C	0.463700	0.460600	0.442860	0.123522
C50	C	0.537600	0.433700	0.333940	0.795592
C51	C	0.522700	0.404400	0.486280	-0.127793
C52	C	0.430500	0.420000	0.380710	-0.387597
C53	C	0.411500	0.649100	0.867090	0.799306
C54	C	0.076600	0.755700	0.638640	-0.387597
C55	C	0.406400	0.582400	0.919750	-0.387100
C56	C	0.023600	0.516600	0.171430	0.819992
C57	C	0.114500	0.477500	0.121610	-0.391692
C58	C	0.053800	0.488900	0.058750	0.121962
C59	C	0.050300	0.413200	0.016830	-0.127793
C60	C	0.001400	0.576100	0.041210	-0.127793
C61	C	0.862400	0.142400	0.192550	0.795592
C62	C	0.580200	0.127900	0.352630	0.799306
C63	C	0.548900	0.118900	0.468720	0.123522
C64	C	0.468600	0.207600	0.579500	0.123522
C65	C	0.377600	0.179200	0.535950	-0.127793
C66	C	0.923100	0.143000	0.995260	-0.127793
C67	C	0.938100	0.221500	0.162810	-0.387597
C68	C	0.980000	0.189300	0.098840	0.123522
C69	C	0.111800	0.171400	0.084920	-0.127793
C70	C	0.416900	0.135700	0.481260	-0.127793
C71	C	0.052700	0.123200	0.981620	0.123522
C72	C	0.885900	0.176300	0.053260	-0.127793
C73	C	0.639800	0.145800	0.513060	-0.127793
C74	C	0.593000	0.070100	0.409840	-0.387100
C75	C	0.146800	0.138500	0.026620	-0.127793
C76	C	0.600100	0.190300	0.567740	-0.127793
C77	C	0.364000	0.186300	0.682020	0.795592
C78	C	0.058400	0.056600	0.457370	-0.127793
C79	C	0.036300	0.960600	0.442860	0.123522
C80	C	0.962400	0.933700	0.333940	0.795592
C81	C	0.977300	0.904400	0.486280	-0.127793
C82	C	0.069500	0.920000	0.380710	-0.387597
C83	C	0.088500	0.149100	0.867090	0.799306
C84	C	0.423400	0.255700	0.638640	-0.387597
C85	C	0.093600	0.082400	0.919750	-0.387100
C86	C	0.476400	0.016600	0.171430	0.819992
C87	C	0.385500	0.977500	0.121610	-0.391692
C88	C	0.446200	0.988900	0.058750	0.121962
C89	C	0.449700	0.913200	0.016830	-0.127793
C90	C	0.498600	0.076100	0.041210	-0.127793
C91	C	0.362400	0.357600	0.807450	0.795592
C92	C	0.080200	0.372100	0.647370	0.799306
C93	C	0.048900	0.381100	0.531280	0.123522
C94	C	0.968600	0.292400	0.420500	0.123522
C95	C	0.877600	0.320800	0.464050	-0.127793
C96	C	0.423100	0.357000	0.004740	-0.127793
C97	C	0.438100	0.278500	0.837190	-0.387597
C98	C	0.480000	0.310700	0.901160	0.123522
C99	C	0.611800	0.328600	0.915080	-0.127793
C100	C	0.916900	0.364300	0.518740	-0.127793
C101	C	0.552700	0.376800	0.018380	0.123522
C102	C	0.385900	0.323700	0.946740	-0.127793
C103	C	0.139800	0.354200	0.486940	-0.127793
C104	C	0.093000	0.429900	0.590160	-0.387100
C105	C	0.646800	0.361500	0.973380	-0.127793
C106	C	0.100100	0.309700	0.432260	-0.127793
C107	C	0.864000	0.313700	0.317980	0.795592
C108	C	0.558400	0.443400	0.542630	-0.127793
C109	C	0.536300	0.539400	0.557140	0.123522
C110	C	0.462400	0.566300	0.666060	0.795592
C111	C	0.477300	0.595600	0.513720	-0.127793
C112	C	0.569500	0.580000	0.619290	-0.387597
C113	C	0.588500	0.350900	0.132910	0.799306
C114	C	0.923400	0.244300	0.361360	-0.387597
C115	C	0.593600	0.417600	0.080250	-0.387100
C116	C	0.976400	0.483400	0.828570	0.819992
C117	C	0.885500	0.522500	0.878390	-0.391692
C118	C	0.946200	0.511100	0.941250	0.121962
C119	C	0.949700	0.586800	0.983170	-0.127793
C120	C	0.998600	0.423900	0.958790	-0.127793
O1	O	0.365300	0.903640	0.696500	-0.852573
O2	O	0.074200	0.923030	0.782000	-0.664763
O3	O	0.831000	0.865250	0.176450	-0.852573
O4	O	0.431000	0.035840	0.812320	-0.725779
O5	O	0.029200	0.109360	0.717950	-0.855538
O6	O	0.133100	0.013430	0.654200	-0.664763
O7	O	0.991600	0.783880	0.135550	-0.677920
O8	O	0.481300	0.796040	0.649090	-0.677920
O9	O	0.584700	0.894500	0.313380	-0.664763
O10	O	0.261400	0.861210	0.809140	-0.855538
O11	O	0.545700	0.901340	0.806760	-0.741857
O12	O	0.735200	0.792920	0.285240	-0.855538
O13	O	0.865300	0.596360	0.303500	-0.852573
O14	O	0.574200	0.576970	0.218000	-0.664763
O15	O	0.331000	0.634750	0.823550	-0.852573
O16	O	0.931000	0.464160	0.187680	-0.725779
O17	O	0.529200	0.390640	0.282050	-0.855538
O18	O	0.633100	0.486570	0.345800	-0.664763
O19	O	0.491600	0.716120	0.864450	-0.677920
O20	O	0.981300	0.703960	0.350910	-0.677920
O21	O	0.084700	0.605500	0.686620	-0.664763
O22	O	0.761400	0.638790	0.190860	-0.855538
O23	O	0.045700	0.598660	0.193240	-0.741857
O24	O	0.235200	0.707080	0.714760	-0.855538
O25	O	0.634700	0.096360	0.303500	-0.852573
O26	O	0.925800	0.076970	0.218000	-0.664763
O27	O	0.169000	0.134750	0.823550	-0.852573
O28	O	0.569000	0.964160	0.187680	-0.725779
O29	O	0.970800	0.890640	0.282050	-0.855538
O30	O	0.866900	0.986570	0.345800	-0.664763
O31	O	0.008400	0.216120	0.864450	-0.677920
O32	O	0.518700	0.203960	0.350910	-0.677920
O33	O	0.415300	0.105500	0.686620	-0.664763
O34	O	0.738600	0.138790	0.190860	-0.855538
O35	O	0.454300	0.098660	0.193240	-0.741857
O36	O	0.264800	0.207080	0.714760	-0.855538
O37	O	0.134700	0.403640	0.696500	-0.852573
O38	O	0.425800	0.423030	0.782000	-0.664763
O39	O	0.669000	0.365250	0.176450	-0.852573
O40	O	0.069000	0.535840	0.812320	-0.725779
O41	O	0.470800	0.609360	0.717950	-0.855538
O42	O	0.366900	0.513430	0.654200	-0.664763
O43	O	0.508400	0.283880	0.135550	-0.677920
O44	O	0.018700	0.296040	0.649090	-0.677920
O45	O	0.915300	0.394500	0.313380	-0.664763
O46	O	0.238600	0.361210	0.809140	-0.855538
O47	O	0.954300	0.401340	0.806760	-0.741857
O48	O	0.764800	0.292920	0.285240	-0.855538
