data_CEGDUO_clean_PM
_symmetry_space_group_name_H-M	'P1'
_cell_length_a	10.430700
_cell_length_b	12.786700
_cell_length_c	19.622800
_cell_angle_alpha	90.000000
_cell_angle_beta	90.000000
_cell_angle_gamma	90.000000
_symmetry_Int_Tables_number 1

loop_
_symmetry_equiv_pos_as_xyz
'x,y,z'

loop_
_atom_site_label
_atom_site_type_symbol
_atom_site_fract_x
_atom_site_fract_y
_atom_site_fract_z
_atom_site_charge
Ag1	Ag	0.142450	0.673020	0.464790	0.262660
Ag2	Ag	0.857550	0.673020	0.035210	0.262660
Ag3	Ag	0.642450	0.826980	0.035210	0.262660
Ag4	Ag	0.357550	0.826980	0.464790	0.262660
Ag5	Ag	0.250000	0.250000	0.333660	0.291235
Ag6	Ag	0.750000	0.250000	0.166340	0.291235
Ag7	Ag	0.000000	0.829580	0.750000	0.291235
Ag8	Ag	0.500000	0.670420	0.750000	0.291235
Ag9	Ag	0.857550	0.326980	0.535210	0.262660
Ag10	Ag	0.142450	0.326980	0.964790	0.262660
Ag11	Ag	0.357550	0.173020	0.964790	0.262660
Ag12	Ag	0.642450	0.173020	0.535210	0.262660
Ag13	Ag	0.750000	0.750000	0.666340	0.291235
Ag14	Ag	0.250000	0.750000	0.833660	0.291235
Ag15	Ag	0.000000	0.170420	0.250000	0.291235
Ag16	Ag	0.500000	0.329580	0.250000	0.291235
H1	H	0.217200	0.647800	0.300200	0.085109
H2	H	0.249600	0.476300	0.244900	0.083746
H3	H	0.191300	0.334200	0.461300	0.128965
H4	H	0.252700	0.434700	0.497200	0.128965
H5	H	0.100900	0.427500	0.486600	0.128965
H6	H	0.988500	0.978600	0.612600	0.083746
H7	H	0.041100	0.915800	0.496900	0.085109
H8	H	0.103000	0.645300	0.686700	0.128965
H9	H	0.060900	0.590800	0.616800	0.128965
H10	H	0.205400	0.630100	0.626800	0.128965
H11	H	0.782800	0.647800	0.199800	0.085109
H12	H	0.750400	0.476300	0.255100	0.083746
H13	H	0.808700	0.334200	0.038700	0.128965
H14	H	0.747300	0.434700	0.002800	0.128965
H15	H	0.899100	0.427500	0.013400	0.128965
H16	H	0.011500	0.978600	0.887400	0.083746
H17	H	0.958900	0.915800	0.003100	0.085109
H18	H	0.897000	0.645300	0.813300	0.128965
H19	H	0.939100	0.590800	0.883200	0.128965
H20	H	0.794600	0.630100	0.873200	0.128965
H21	H	0.717200	0.852200	0.199800	0.085109
H22	H	0.749600	0.023700	0.255100	0.083746
H23	H	0.691300	0.165800	0.038700	0.128965
H24	H	0.752700	0.065300	0.002800	0.128965
H25	H	0.600900	0.072500	0.013400	0.128965
H26	H	0.488500	0.521400	0.887400	0.083746
H27	H	0.541100	0.584200	0.003100	0.085109
H28	H	0.603000	0.854700	0.813300	0.128965
H29	H	0.560900	0.909200	0.883200	0.128965
H30	H	0.705400	0.869900	0.873200	0.128965
H31	H	0.282800	0.852200	0.300200	0.085109
H32	H	0.250400	0.023700	0.244900	0.083746
H33	H	0.308700	0.165800	0.461300	0.128965
H34	H	0.247300	0.065300	0.497200	0.128965
H35	H	0.399100	0.072500	0.486600	0.128965
H36	H	0.511500	0.521400	0.612600	0.083746
H37	H	0.458900	0.584200	0.496900	0.085109
H38	H	0.397000	0.854700	0.686700	0.128965
H39	H	0.439100	0.909200	0.616800	0.128965
H40	H	0.294600	0.869900	0.626800	0.128965
H41	H	0.782800	0.352200	0.699800	0.085109
H42	H	0.750400	0.523700	0.755100	0.083746
H43	H	0.808700	0.665800	0.538700	0.128965
H44	H	0.747300	0.565300	0.502800	0.128965
H45	H	0.899100	0.572500	0.513400	0.128965
H46	H	0.011500	0.021400	0.387400	0.083746
H47	H	0.958900	0.084200	0.503100	0.085109
H48	H	0.897000	0.354700	0.313300	0.128965
H49	H	0.939100	0.409200	0.383200	0.128965
H50	H	0.794600	0.369900	0.373200	0.128965
H51	H	0.217200	0.352200	0.800200	0.085109
H52	H	0.249600	0.523700	0.744900	0.083746
H53	H	0.191300	0.665800	0.961300	0.128965
H54	H	0.252700	0.565300	0.997200	0.128965
H55	H	0.100900	0.572500	0.986600	0.128965
H56	H	0.988500	0.021400	0.112600	0.083746
H57	H	0.041100	0.084200	0.996900	0.085109
H58	H	0.103000	0.354700	0.186700	0.128965
H59	H	0.060900	0.409200	0.116800	0.128965
H60	H	0.205400	0.369900	0.126800	0.128965
H61	H	0.282800	0.147800	0.800200	0.085109
H62	H	0.250400	0.976300	0.744900	0.083746
H63	H	0.308700	0.834200	0.961300	0.128965
H64	H	0.247300	0.934700	0.997200	0.128965
H65	H	0.399100	0.927500	0.986600	0.128965
H66	H	0.511500	0.478600	0.112600	0.083746
H67	H	0.458900	0.415800	0.996900	0.085109
H68	H	0.397000	0.145300	0.186700	0.128965
H69	H	0.439100	0.090800	0.116800	0.128965
H70	H	0.294600	0.130100	0.126800	0.128965
H71	H	0.717200	0.147800	0.699800	0.085109
H72	H	0.749600	0.976300	0.755100	0.083746
H73	H	0.691300	0.834200	0.538700	0.128965
H74	H	0.752700	0.934700	0.502800	0.128965
H75	H	0.600900	0.927500	0.513400	0.128965
H76	H	0.488500	0.478600	0.387400	0.083746
H77	H	0.541100	0.415800	0.503100	0.085109
H78	H	0.603000	0.145300	0.313300	0.128965
H79	H	0.560900	0.090800	0.383200	0.128965
H80	H	0.705400	0.130100	0.373200	0.128965
C1	C	0.197700	0.461800	0.399250	0.385826
C2	C	0.214600	0.581700	0.322270	0.024767
C3	C	0.232600	0.487400	0.291860	0.022252
C4	C	0.184500	0.410100	0.466850	-0.445600
C5	C	0.079700	0.749230	0.608660	0.385826
C6	C	0.018300	0.910600	0.601210	0.022252
C7	C	0.046800	0.875900	0.537680	0.024767
C8	C	0.115300	0.644900	0.637160	-0.445600
C9	C	0.802300	0.461800	0.100750	0.385826
C10	C	0.785400	0.581700	0.177730	0.024767
C11	C	0.767400	0.487400	0.208140	0.022252
C12	C	0.815500	0.410100	0.033150	-0.445600
C13	C	0.920300	0.749230	0.891340	0.385826
C14	C	0.981700	0.910600	0.898790	0.022252
C15	C	0.953200	0.875900	0.962320	0.024767
C16	C	0.884700	0.644900	0.862840	-0.445600
C17	C	0.697700	0.038200	0.100750	0.385826
C18	C	0.714600	0.918300	0.177730	0.024767
C19	C	0.732600	0.012600	0.208140	0.022252
C20	C	0.684500	0.089900	0.033150	-0.445600
C21	C	0.579700	0.750770	0.891340	0.385826
C22	C	0.518300	0.589400	0.898790	0.022252
C23	C	0.546800	0.624100	0.962320	0.024767
C24	C	0.615300	0.855100	0.862840	-0.445600
C25	C	0.302300	0.038200	0.399250	0.385826
C26	C	0.285400	0.918300	0.322270	0.024767
C27	C	0.267400	0.012600	0.291860	0.022252
C28	C	0.315500	0.089900	0.466850	-0.445600
C29	C	0.420300	0.750770	0.608660	0.385826
C30	C	0.481700	0.589400	0.601210	0.022252
C31	C	0.453200	0.624100	0.537680	0.024767
C32	C	0.384700	0.855100	0.637160	-0.445600
C33	C	0.802300	0.538200	0.600750	0.385826
C34	C	0.785400	0.418300	0.677730	0.024767
C35	C	0.767400	0.512600	0.708140	0.022252
C36	C	0.815500	0.589900	0.533150	-0.445600
C37	C	0.920300	0.250770	0.391340	0.385826
C38	C	0.981700	0.089400	0.398790	0.022252
C39	C	0.953200	0.124100	0.462320	0.024767
C40	C	0.884700	0.355100	0.362840	-0.445600
C41	C	0.197700	0.538200	0.899250	0.385826
C42	C	0.214600	0.418300	0.822270	0.024767
C43	C	0.232600	0.512600	0.791860	0.022252
C44	C	0.184500	0.589900	0.966850	-0.445600
C45	C	0.079700	0.250770	0.108660	0.385826
C46	C	0.018300	0.089400	0.101210	0.022252
C47	C	0.046800	0.124100	0.037680	0.024767
C48	C	0.115300	0.355100	0.137160	-0.445600
C49	C	0.302300	0.961800	0.899250	0.385826
C50	C	0.285400	0.081700	0.822270	0.024767
C51	C	0.267400	0.987400	0.791860	0.022252
C52	C	0.315500	0.910100	0.966850	-0.445600
C53	C	0.420300	0.249230	0.108660	0.385826
C54	C	0.481700	0.410600	0.101210	0.022252
C55	C	0.453200	0.375900	0.037680	0.024767
C56	C	0.384700	0.144900	0.137160	-0.445600
C57	C	0.697700	0.961800	0.600750	0.385826
C58	C	0.714600	0.081700	0.677730	0.024767
C59	C	0.732600	0.987400	0.708140	0.022252
C60	C	0.684500	0.910100	0.533150	-0.445600
C61	C	0.579700	0.249230	0.391340	0.385826
C62	C	0.518300	0.410600	0.398790	0.022252
C63	C	0.546800	0.375900	0.462320	0.024767
C64	C	0.615300	0.144900	0.362840	-0.445600
N1	N	0.221900	0.410800	0.340730	-0.399973
N2	N	0.192000	0.565430	0.390460	-0.419968
N3	N	0.085600	0.773200	0.542280	-0.419968
N4	N	0.039900	0.829790	0.646610	-0.399973
N5	N	0.778100	0.410800	0.159270	-0.399973
N6	N	0.808000	0.565430	0.109540	-0.419968
N7	N	0.914400	0.773200	0.957720	-0.419968
N8	N	0.960100	0.829790	0.853390	-0.399973
N9	N	0.721900	0.089200	0.159270	-0.399973
N10	N	0.692000	0.934570	0.109540	-0.419968
N11	N	0.585600	0.726800	0.957720	-0.419968
N12	N	0.539900	0.670210	0.853390	-0.399973
N13	N	0.278100	0.089200	0.340730	-0.399973
N14	N	0.308000	0.934570	0.390460	-0.419968
N15	N	0.414400	0.726800	0.542280	-0.419968
N16	N	0.460100	0.670210	0.646610	-0.399973
N17	N	0.778100	0.589200	0.659270	-0.399973
N18	N	0.808000	0.434570	0.609540	-0.419968
N19	N	0.914400	0.226800	0.457720	-0.419968
N20	N	0.960100	0.170210	0.353390	-0.399973
N21	N	0.221900	0.589200	0.840730	-0.399973
N22	N	0.192000	0.434570	0.890460	-0.419968
N23	N	0.085600	0.226800	0.042280	-0.419968
N24	N	0.039900	0.170210	0.146610	-0.399973
N25	N	0.278100	0.910800	0.840730	-0.399973
N26	N	0.308000	0.065430	0.890460	-0.419968
N27	N	0.414400	0.273200	0.042280	-0.419968
N28	N	0.460100	0.329790	0.146610	-0.399973
N29	N	0.721900	0.910800	0.659270	-0.399973
N30	N	0.692000	0.065430	0.609540	-0.419968
N31	N	0.585600	0.273200	0.457720	-0.419968
N32	N	0.539900	0.329790	0.353390	-0.399973
