data_CEHKUW_clean_PM
_symmetry_space_group_name_H-M	'P1'
_cell_length_a	10.350300
_cell_length_b	10.350300
_cell_length_c	52.557000
_cell_angle_alpha	90.000000
_cell_angle_beta	90.000000
_cell_angle_gamma	90.000000
_symmetry_Int_Tables_number 1

loop_
_symmetry_equiv_pos_as_xyz
'x,y,z'

loop_
_atom_site_label
_atom_site_type_symbol
_atom_site_fract_x
_atom_site_fract_y
_atom_site_fract_z
_atom_site_charge
Cd1	Cd	0.641550	0.940280	0.976390	1.161321
Cd2	Cd	0.854670	0.757070	0.171170	1.161310
Cd3	Cd	0.358450	0.059720	0.476390	1.161321
Cd4	Cd	0.145330	0.242930	0.671170	1.161310
Cd5	Cd	0.059720	0.641550	0.226390	1.161321
Cd6	Cd	0.242930	0.854670	0.421170	1.161310
Cd7	Cd	0.940280	0.358450	0.726390	1.161321
Cd8	Cd	0.757070	0.145330	0.921170	1.161310
Cd9	Cd	0.358450	0.940280	0.023610	1.161321
Cd10	Cd	0.145330	0.757070	0.828830	1.161310
Cd11	Cd	0.641550	0.059720	0.523610	1.161321
Cd12	Cd	0.854670	0.242930	0.328830	1.161310
Cd13	Cd	0.940280	0.641550	0.773610	1.161321
Cd14	Cd	0.757070	0.854670	0.578830	1.161310
Cd15	Cd	0.059720	0.358450	0.273610	1.161321
Cd16	Cd	0.242930	0.145330	0.078830	1.161310
H1	H	0.664100	0.880100	0.086900	0.111373
H2	H	0.051100	0.872900	0.092700	0.111373
H3	H	0.882700	0.945500	0.025100	0.111373
H4	H	0.606900	0.520900	0.968400	0.111373
H5	H	0.335900	0.119900	0.586900	0.111373
H6	H	0.948900	0.127100	0.592700	0.111373
H7	H	0.117300	0.054500	0.525100	0.111373
H8	H	0.393100	0.479100	0.468400	0.111373
H9	H	0.119900	0.664100	0.336900	0.111373
H10	H	0.127100	0.051100	0.342700	0.111373
H11	H	0.054500	0.882700	0.275100	0.111373
H12	H	0.479100	0.606900	0.218400	0.111373
H13	H	0.880100	0.335900	0.836900	0.111373
H14	H	0.872900	0.948900	0.842700	0.111373
H15	H	0.945500	0.117300	0.775100	0.111373
H16	H	0.520900	0.393100	0.718400	0.111373
H17	H	0.335900	0.880100	0.913100	0.111373
H18	H	0.948900	0.872900	0.907300	0.111373
H19	H	0.117300	0.945500	0.974900	0.111373
H20	H	0.393100	0.520900	0.031600	0.111373
H21	H	0.664100	0.119900	0.413100	0.111373
H22	H	0.051100	0.127100	0.407300	0.111373
H23	H	0.882700	0.054500	0.474900	0.111373
H24	H	0.606900	0.479100	0.531600	0.111373
H25	H	0.880100	0.664100	0.663100	0.111373
H26	H	0.872900	0.051100	0.657300	0.111373
H27	H	0.945500	0.882700	0.724900	0.111373
H28	H	0.520900	0.606900	0.781600	0.111373
H29	H	0.119900	0.335900	0.163100	0.111373
H30	H	0.127100	0.948900	0.157300	0.111373
H31	H	0.054500	0.117300	0.224900	0.111373
H32	H	0.479100	0.393100	0.281600	0.111373
H33	H	0.500000	0.184100	0.000000	0.111373
H34	H	0.500000	0.815900	0.500000	0.111373
H35	H	0.815900	0.500000	0.250000	0.111373
H36	H	0.184100	0.500000	0.750000	0.111373
C1	C	0.631800	0.949300	0.039490	0.674221
C2	C	0.755100	0.919800	0.054050	-0.158789
C3	C	0.745200	0.888300	0.079410	0.024495
C4	C	0.857700	0.868000	0.094290	-0.162262
C5	C	0.976700	0.881500	0.082960	0.032160
C6	C	0.987500	0.908000	0.056990	-0.163095
C7	C	0.876200	0.927500	0.042420	0.032160
C8	C	0.847900	0.833400	0.122080	0.695432
C9	C	0.117900	0.919500	0.045590	0.704146
C10	C	0.634100	0.270300	0.960130	0.714898
C11	C	0.566400	0.342200	0.981150	-0.164530
C12	C	0.564400	0.475500	0.981210	0.032160
C13	C	0.368200	0.050700	0.539490	0.674221
C14	C	0.244900	0.080200	0.554050	-0.158789
C15	C	0.254800	0.111700	0.579410	0.024495
C16	C	0.142300	0.132000	0.594290	-0.162262
C17	C	0.023300	0.118500	0.582960	0.032160
C18	C	0.012500	0.092000	0.556990	-0.163095
C19	C	0.123800	0.072500	0.542420	0.032160
C20	C	0.152100	0.166600	0.622080	0.695432
C21	C	0.882100	0.080500	0.545590	0.704146
C22	C	0.365900	0.729700	0.460130	0.714898
C23	C	0.433600	0.657800	0.481150	-0.164530
C24	C	0.435600	0.524500	0.481210	0.032160
C25	C	0.050700	0.631800	0.289490	0.674221
C26	C	0.080200	0.755100	0.304050	-0.158789
C27	C	0.111700	0.745200	0.329410	0.024495
C28	C	0.132000	0.857700	0.344290	-0.162262
C29	C	0.118500	0.976700	0.332960	0.032160
C30	C	0.092000	0.987500	0.306990	-0.163095
C31	C	0.072500	0.876200	0.292420	0.032160
C32	C	0.166600	0.847900	0.372080	0.695432
C33	C	0.080500	0.117900	0.295590	0.704146
C34	C	0.729700	0.634100	0.210130	0.714898
C35	C	0.657800	0.566400	0.231150	-0.164530
C36	C	0.524500	0.564400	0.231210	0.032160
C37	C	0.949300	0.368200	0.789490	0.674221
C38	C	0.919800	0.244900	0.804050	-0.158789
C39	C	0.888300	0.254800	0.829410	0.024495
C40	C	0.868000	0.142300	0.844290	-0.162262
C41	C	0.881500	0.023300	0.832960	0.032160
C42	C	0.908000	0.012500	0.806990	-0.163095
C43	C	0.927500	0.123800	0.792420	0.032160
C44	C	0.833400	0.152100	0.872080	0.695432
C45	C	0.919500	0.882100	0.795590	0.704146
C46	C	0.270300	0.365900	0.710130	0.714898
C47	C	0.342200	0.433600	0.731150	-0.164530
C48	C	0.475500	0.435600	0.731210	0.032160
C49	C	0.368200	0.949300	0.960510	0.674221
C50	C	0.244900	0.919800	0.945950	-0.158789
C51	C	0.254800	0.888300	0.920590	0.024495
C52	C	0.142300	0.868000	0.905710	-0.162262
C53	C	0.023300	0.881500	0.917040	0.032160
C54	C	0.012500	0.908000	0.943010	-0.163095
C55	C	0.123800	0.927500	0.957580	0.032160
C56	C	0.152100	0.833400	0.877920	0.695432
C57	C	0.882100	0.919500	0.954410	0.704146
C58	C	0.365900	0.270300	0.039870	0.714898
C59	C	0.433600	0.342200	0.018850	-0.164530
C60	C	0.435600	0.475500	0.018790	0.032160
C61	C	0.631800	0.050700	0.460510	0.674221
C62	C	0.755100	0.080200	0.445950	-0.158789
C63	C	0.745200	0.111700	0.420590	0.024495
C64	C	0.857700	0.132000	0.405710	-0.162262
C65	C	0.976700	0.118500	0.417040	0.032160
C66	C	0.987500	0.092000	0.443010	-0.163095
C67	C	0.876200	0.072500	0.457580	0.032160
C68	C	0.847900	0.166600	0.377920	0.695432
C69	C	0.117900	0.080500	0.454410	0.704146
C70	C	0.634100	0.729700	0.539870	0.714898
C71	C	0.566400	0.657800	0.518850	-0.164530
C72	C	0.564400	0.524500	0.518790	0.032160
C73	C	0.949300	0.631800	0.710510	0.674221
C74	C	0.919800	0.755100	0.695950	-0.158789
C75	C	0.888300	0.745200	0.670590	0.024495
C76	C	0.868000	0.857700	0.655710	-0.162262
C77	C	0.881500	0.976700	0.667040	0.032160
C78	C	0.908000	0.987500	0.693010	-0.163095
C79	C	0.927500	0.876200	0.707580	0.032160
C80	C	0.833400	0.847900	0.627920	0.695432
C81	C	0.919500	0.117900	0.704410	0.704146
C82	C	0.270300	0.634100	0.789870	0.714898
C83	C	0.342200	0.566400	0.768850	-0.164530
C84	C	0.475500	0.564400	0.768790	0.032160
C85	C	0.050700	0.368200	0.210510	0.674221
C86	C	0.080200	0.244900	0.195950	-0.158789
C87	C	0.111700	0.254800	0.170590	0.024495
C88	C	0.132000	0.142300	0.155710	-0.162262
C89	C	0.118500	0.023300	0.167040	0.032160
C90	C	0.092000	0.012500	0.193010	-0.163095
C91	C	0.072500	0.123800	0.207580	0.032160
C92	C	0.166600	0.152100	0.127920	0.695432
C93	C	0.080500	0.882100	0.204410	0.704146
C94	C	0.729700	0.365900	0.289870	0.714898
C95	C	0.657800	0.433600	0.268850	-0.164530
C96	C	0.524500	0.435600	0.268790	0.032160
C97	C	0.500000	0.274000	0.000000	0.040603
C98	C	0.500000	0.541600	0.000000	-0.158789
C99	C	0.500000	0.689000	0.000000	0.674221
C100	C	0.500000	0.726000	0.500000	0.040603
C101	C	0.500000	0.458400	0.500000	-0.158789
C102	C	0.500000	0.311000	0.500000	0.674221
C103	C	0.726000	0.500000	0.250000	0.040603
C104	C	0.458400	0.500000	0.250000	-0.158789
C105	C	0.311000	0.500000	0.250000	0.674221
C106	C	0.274000	0.500000	0.750000	0.040603
C107	C	0.541600	0.500000	0.750000	-0.158789
C108	C	0.689000	0.500000	0.750000	0.674221
O1	O	0.640500	0.996300	0.017670	-0.586092
O2	O	0.528600	0.928200	0.050440	-0.586092
O3	O	0.742000	0.816400	0.132100	-0.593890
O4	O	0.948400	0.817600	0.133980	-0.593890
O5	O	0.131800	0.912600	0.021650	-0.558985
O6	O	0.214900	0.935200	0.060190	-0.646500
O7	O	0.658200	0.151500	0.963220	-0.644394
O8	O	0.668500	0.329100	0.940720	-0.566892
O9	O	0.591200	0.742100	0.988500	-0.586092
O10	O	0.359500	0.003700	0.517670	-0.586092
O11	O	0.471400	0.071800	0.550440	-0.586092
O12	O	0.258000	0.183600	0.632100	-0.593890
O13	O	0.051600	0.182400	0.633980	-0.593890
O14	O	0.868200	0.087400	0.521650	-0.558985
O15	O	0.785100	0.064800	0.560190	-0.646500
O16	O	0.341800	0.848500	0.463220	-0.644394
O17	O	0.331500	0.670900	0.440720	-0.566892
O18	O	0.408800	0.257900	0.488500	-0.586092
O19	O	0.003700	0.640500	0.267670	-0.586092
O20	O	0.071800	0.528600	0.300440	-0.586092
O21	O	0.183600	0.742000	0.382100	-0.593890
O22	O	0.182400	0.948400	0.383980	-0.593890
O23	O	0.087400	0.131800	0.271650	-0.558985
O24	O	0.064800	0.214900	0.310190	-0.646500
O25	O	0.848500	0.658200	0.213220	-0.644394
O26	O	0.670900	0.668500	0.190720	-0.566892
O27	O	0.257900	0.591200	0.238500	-0.586092
O28	O	0.996300	0.359500	0.767670	-0.586092
O29	O	0.928200	0.471400	0.800440	-0.586092
O30	O	0.816400	0.258000	0.882100	-0.593890
O31	O	0.817600	0.051600	0.883980	-0.593890
O32	O	0.912600	0.868200	0.771650	-0.558985
O33	O	0.935200	0.785100	0.810190	-0.646500
O34	O	0.151500	0.341800	0.713220	-0.644394
O35	O	0.329100	0.331500	0.690720	-0.566892
O36	O	0.742100	0.408800	0.738500	-0.586092
O37	O	0.359500	0.996300	0.982330	-0.586092
O38	O	0.471400	0.928200	0.949560	-0.586092
O39	O	0.258000	0.816400	0.867900	-0.593890
O40	O	0.051600	0.817600	0.866020	-0.593890
O41	O	0.868200	0.912600	0.978350	-0.558985
O42	O	0.785100	0.935200	0.939810	-0.646500
O43	O	0.341800	0.151500	0.036780	-0.644394
O44	O	0.331500	0.329100	0.059280	-0.566892
O45	O	0.408800	0.742100	0.011500	-0.586092
O46	O	0.640500	0.003700	0.482330	-0.586092
O47	O	0.528600	0.071800	0.449560	-0.586092
O48	O	0.742000	0.183600	0.367900	-0.593890
O49	O	0.948400	0.182400	0.366020	-0.593890
O50	O	0.131800	0.087400	0.478350	-0.558985
O51	O	0.214900	0.064800	0.439810	-0.646500
O52	O	0.658200	0.848500	0.536780	-0.644394
O53	O	0.668500	0.670900	0.559280	-0.566892
O54	O	0.591200	0.257900	0.511500	-0.586092
O55	O	0.996300	0.640500	0.732330	-0.586092
O56	O	0.928200	0.528600	0.699560	-0.586092
O57	O	0.816400	0.742000	0.617900	-0.593890
O58	O	0.817600	0.948400	0.616020	-0.593890
O59	O	0.912600	0.131800	0.728350	-0.558985
O60	O	0.935200	0.214900	0.689810	-0.646500
O61	O	0.151500	0.658200	0.786780	-0.644394
O62	O	0.329100	0.668500	0.809280	-0.566892
O63	O	0.742100	0.591200	0.761500	-0.586092
O64	O	0.003700	0.359500	0.232330	-0.586092
O65	O	0.071800	0.471400	0.199560	-0.586092
O66	O	0.183600	0.258000	0.117900	-0.593890
O67	O	0.182400	0.051600	0.116020	-0.593890
O68	O	0.087400	0.868200	0.228350	-0.558985
O69	O	0.064800	0.785100	0.189810	-0.646500
O70	O	0.848500	0.341800	0.286780	-0.644394
O71	O	0.670900	0.331500	0.309280	-0.566892
O72	O	0.257900	0.408800	0.261500	-0.586092
