data_CEJBEA_clean_PM
_symmetry_space_group_name_H-M	'P1'
_cell_length_a	10.286000
_cell_length_b	19.161000
_cell_length_c	19.787000
_cell_angle_alpha	77.520001
_cell_angle_beta	76.720001
_cell_angle_gamma	81.020000
_symmetry_Int_Tables_number 1

loop_
_symmetry_equiv_pos_as_xyz
'x,y,z'

loop_
_atom_site_label
_atom_site_type_symbol
_atom_site_fract_x
_atom_site_fract_y
_atom_site_fract_z
_atom_site_charge
Dy1	Dy	0.367000	0.941670	0.571570	2.215390
Dy2	Dy	0.816080	0.480640	0.567610	2.253432
Dy3	Dy	0.851560	0.580030	0.961410	2.164668
Dy4	Dy	0.633000	0.058330	0.428430	2.215390
Dy5	Dy	0.183920	0.519360	0.432390	2.253432
Dy6	Dy	0.148440	0.419970	0.038590	2.164668
H1	H	0.884200	0.003500	0.570400	0.101127
H2	H	0.590100	0.000300	0.743000	0.097315
H3	H	0.746000	0.996600	0.810900	0.098832
H4	H	0.972400	0.992100	0.760100	0.097762
H5	H	0.706600	0.732600	0.528900	0.100937
H6	H	0.005000	0.715500	0.361300	0.097315
H7	H	0.956200	0.835700	0.315300	0.098832
H8	H	0.778600	0.904300	0.373700	0.097315
H9	H	0.983400	0.485700	0.253000	0.100937
H10	H	0.658900	0.580700	0.177900	0.097315
H11	H	0.550500	0.598600	0.290600	0.098832
H12	H	0.659300	0.558500	0.384300	0.097315
H13	H	0.611500	0.417700	0.003100	0.101127
H14	H	0.527000	0.224500	0.992400	0.097762
H15	H	0.748600	0.177000	0.996200	0.098832
H16	H	0.900900	0.250800	0.003900	0.097315
H17	H	0.159200	0.872600	0.499300	0.075179
H18	H	0.035800	0.776700	0.510000	0.128648
H19	H	0.038700	0.684900	0.604600	0.102284
H20	H	0.127300	0.626300	0.726100	0.101547
H21	H	0.219200	0.638400	0.804200	0.101547
H22	H	0.359700	0.712200	0.852300	0.102284
H23	H	0.463700	0.810400	0.835800	0.128648
H24	H	0.474900	0.892200	0.730300	0.075179
H25	H	0.649500	0.402200	0.479800	0.075463
H26	H	0.549700	0.301800	0.480300	0.128648
H27	H	0.554600	0.206100	0.572400	0.102284
H28	H	0.618700	0.154000	0.693100	0.101547
H29	H	0.687600	0.169200	0.786300	0.101547
H30	H	0.765400	0.250700	0.846800	0.102284
H31	H	0.829500	0.360600	0.845100	0.128648
H32	H	0.837600	0.448400	0.742400	0.075463
H33	H	0.993600	0.742300	0.885300	0.075061
H34	H	0.003500	0.839300	0.792600	0.128648
H35	H	0.885200	0.845500	0.705500	0.102284
H36	H	0.738800	0.785000	0.652100	0.101547
H37	H	0.602600	0.699800	0.666300	0.101547
H38	H	0.493400	0.592900	0.743800	0.102284
H39	H	0.481400	0.506100	0.843300	0.128648
H40	H	0.630400	0.498900	0.916400	0.075061
H41	H	0.115800	0.996500	0.429600	0.101127
H42	H	0.409900	0.999700	0.257000	0.097315
H43	H	0.254000	0.003400	0.189100	0.098832
H44	H	0.027600	0.007900	0.239900	0.097762
H45	H	0.293400	0.267400	0.471100	0.100937
H46	H	0.995000	0.284500	0.638700	0.097315
H47	H	0.043800	0.164300	0.684700	0.098832
H48	H	0.221400	0.095700	0.626300	0.097315
H49	H	0.016600	0.514300	0.747000	0.100937
H50	H	0.341100	0.419300	0.822100	0.097315
H51	H	0.449500	0.401400	0.709400	0.098832
H52	H	0.340700	0.441500	0.615700	0.097315
H53	H	0.388500	0.582300	0.996900	0.101127
H54	H	0.473000	0.775500	0.007600	0.097762
H55	H	0.251400	0.823000	0.003800	0.098832
H56	H	0.099100	0.749200	0.996100	0.097315
H57	H	0.840800	0.127400	0.500700	0.075179
H58	H	0.964200	0.223300	0.490000	0.128648
H59	H	0.961300	0.315100	0.395400	0.102284
H60	H	0.872700	0.373700	0.273900	0.101547
H61	H	0.780800	0.361600	0.195800	0.101547
H62	H	0.640300	0.287800	0.147700	0.102284
H63	H	0.536300	0.189600	0.164200	0.128648
H64	H	0.525100	0.107800	0.269700	0.075179
H65	H	0.350500	0.597800	0.520200	0.075463
H66	H	0.450300	0.698200	0.519700	0.128648
H67	H	0.445400	0.793900	0.427600	0.102284
H68	H	0.381300	0.846000	0.306900	0.101547
H69	H	0.312400	0.830800	0.213700	0.101547
H70	H	0.234600	0.749300	0.153200	0.102284
H71	H	0.170500	0.639400	0.154900	0.128648
H72	H	0.162400	0.551600	0.257600	0.075463
H73	H	0.006400	0.257700	0.114700	0.075061
H74	H	0.996500	0.160700	0.207400	0.128648
H75	H	0.114800	0.154500	0.294500	0.102284
H76	H	0.261200	0.215000	0.347900	0.101547
H77	H	0.397400	0.300200	0.333700	0.101547
H78	H	0.506600	0.407100	0.256200	0.102284
H79	H	0.518600	0.493900	0.156700	0.128648
H80	H	0.369600	0.501100	0.083600	0.075061
C1	C	0.951100	0.993860	0.660590	-0.133748
C2	C	0.856500	0.000830	0.618970	0.020379
C3	C	0.720000	0.003900	0.649730	-0.164578
C4	C	0.680700	0.000400	0.721810	-0.022607
C5	C	0.774200	0.996900	0.762740	-0.136878
C6	C	0.909500	0.994000	0.732460	-0.029751
C7	C	0.098000	0.985100	0.627250	0.609976
C8	C	0.619100	0.013490	0.602810	0.737682
C9	C	0.726200	0.825940	0.458720	-0.171495
C10	C	0.756800	0.753490	0.485890	0.027968
C11	C	0.860300	0.712220	0.450100	-0.170851
C12	C	0.935000	0.743200	0.385800	-0.022607
C13	C	0.905200	0.815000	0.358100	-0.139208
C14	C	0.800100	0.856400	0.393400	-0.018681
C15	C	0.617200	0.870650	0.498390	0.744659
C16	C	0.895100	0.634680	0.478800	0.754071
C17	C	0.834700	0.519760	0.327630	-0.170851
C18	C	0.896000	0.508410	0.260590	0.024629
C19	C	0.830900	0.529960	0.204000	-0.167159
C20	C	0.702800	0.564500	0.215500	-0.022607
C21	C	0.637700	0.575600	0.283100	-0.139208
C22	C	0.703300	0.552300	0.338970	-0.022607
C23	C	0.907700	0.497660	0.387730	0.754071
C24	C	0.895800	0.515040	0.131970	0.735736
C25	C	0.772200	0.342120	0.003330	-0.165516
C26	C	0.639600	0.369450	0.001440	0.020094
C27	C	0.549400	0.325080	0.997080	-0.134948
C28	C	0.588700	0.253900	0.995200	-0.030117
C29	C	0.721500	0.225400	0.997600	-0.136878
C30	C	0.812500	0.269600	0.001900	-0.022607
C31	C	0.870000	0.391250	0.006400	0.735736
C32	C	0.407300	0.358000	0.995710	0.605668
C33	C	0.160100	0.834900	0.537800	0.226905
C34	C	0.085200	0.777300	0.543700	-0.164642
C35	C	0.087700	0.723200	0.599900	-0.042703
C36	C	0.159700	0.722700	0.650300	0.001101
C37	C	0.232100	0.783000	0.641300	0.184022
C38	C	0.168100	0.668000	0.719000	-0.105911
C39	C	0.223300	0.674900	0.764400	-0.105911
C40	C	0.296400	0.735400	0.762500	0.001101
C41	C	0.360100	0.746100	0.810800	-0.042703
C42	C	0.422900	0.803000	0.800900	-0.164642
C43	C	0.428000	0.852600	0.737100	0.226905
C44	C	0.301400	0.788000	0.695100	0.184022
C45	C	0.646100	0.365000	0.518900	0.220397
C46	C	0.587900	0.303900	0.518000	-0.164504
C47	C	0.588700	0.248100	0.573000	-0.042703
C48	C	0.639600	0.253400	0.629800	0.001398
C49	C	0.689600	0.318570	0.628700	0.189722
C50	C	0.645700	0.198400	0.692200	-0.105911
C51	C	0.686800	0.206800	0.747700	-0.105911
C52	C	0.729800	0.273000	0.749300	0.001398
C53	C	0.766900	0.286300	0.806500	-0.042703
C54	C	0.806300	0.351100	0.805500	-0.164504
C55	C	0.811200	0.404000	0.743100	0.220397
C56	C	0.736100	0.328600	0.688900	0.189722
C57	C	0.946600	0.743600	0.850000	0.221721
C58	C	0.952600	0.802600	0.794300	-0.164752
C59	C	0.883000	0.806000	0.742500	-0.042703
C60	C	0.808400	0.750200	0.744900	0.001259
C61	C	0.805900	0.692700	0.803590	0.187087
C62	C	0.732200	0.749200	0.692400	-0.105911
C63	C	0.652500	0.698200	0.700400	-0.105911
C64	C	0.642700	0.640800	0.760750	0.001259
C65	C	0.550100	0.590600	0.774800	-0.042703
C66	C	0.543500	0.539300	0.833000	-0.164752
C67	C	0.631400	0.536600	0.877800	0.221721
C68	C	0.722000	0.637200	0.810480	0.187087
C69	C	0.048900	0.006140	0.339410	-0.133748
C70	C	0.143500	0.999170	0.381030	0.020379
C71	C	0.280000	0.996100	0.350270	-0.164578
C72	C	0.319300	0.999600	0.278190	-0.022607
C73	C	0.225800	0.003100	0.237260	-0.136878
C74	C	0.090500	0.006000	0.267540	-0.029751
C75	C	0.902000	0.014900	0.372750	0.609976
C76	C	0.380900	0.986510	0.397190	0.737682
C77	C	0.273800	0.174060	0.541280	-0.171495
C78	C	0.243200	0.246510	0.514110	0.027968
C79	C	0.139700	0.287780	0.549900	-0.170851
C80	C	0.065000	0.256800	0.614200	-0.022607
C81	C	0.094800	0.185000	0.641900	-0.139208
C82	C	0.199900	0.143600	0.606600	-0.018681
C83	C	0.382800	0.129350	0.501610	0.744659
C84	C	0.104900	0.365320	0.521200	0.754071
C85	C	0.165300	0.480240	0.672370	-0.170851
C86	C	0.104000	0.491590	0.739410	0.024629
C87	C	0.169100	0.470040	0.796000	-0.167159
C88	C	0.297200	0.435500	0.784500	-0.022607
C89	C	0.362300	0.424400	0.716900	-0.139208
C90	C	0.296700	0.447700	0.661030	-0.022607
C91	C	0.092300	0.502340	0.612270	0.754071
C92	C	0.104200	0.484960	0.868030	0.735736
C93	C	0.227800	0.657880	0.996670	-0.165516
C94	C	0.360400	0.630550	0.998560	0.020094
C95	C	0.450600	0.674920	0.002920	-0.134948
C96	C	0.411300	0.746100	0.004800	-0.030117
C97	C	0.278500	0.774600	0.002400	-0.136878
C98	C	0.187500	0.730400	0.998100	-0.022607
C99	C	0.130000	0.608750	0.993600	0.735736
C100	C	0.592700	0.642000	0.004290	0.605668
C101	C	0.839900	0.165100	0.462200	0.226905
C102	C	0.914800	0.222700	0.456300	-0.164642
C103	C	0.912300	0.276800	0.400100	-0.042703
C104	C	0.840300	0.277300	0.349700	0.001101
C105	C	0.767900	0.217000	0.358700	0.184022
C106	C	0.831900	0.332000	0.281000	-0.105911
C107	C	0.776700	0.325100	0.235600	-0.105911
C108	C	0.703600	0.264600	0.237500	0.001101
C109	C	0.639900	0.253900	0.189200	-0.042703
C110	C	0.577100	0.197000	0.199100	-0.164642
C111	C	0.572000	0.147400	0.262900	0.226905
C112	C	0.698600	0.212000	0.304900	0.184022
C113	C	0.353900	0.635000	0.481100	0.220397
C114	C	0.412100	0.696100	0.482000	-0.164504
C115	C	0.411300	0.751900	0.427000	-0.042703
C116	C	0.360400	0.746600	0.370200	0.001398
C117	C	0.310400	0.681430	0.371300	0.189722
C118	C	0.354300	0.801600	0.307800	-0.105911
C119	C	0.313200	0.793200	0.252300	-0.105911
C120	C	0.270200	0.727000	0.250700	0.001398
C121	C	0.233100	0.713700	0.193500	-0.042703
C122	C	0.193700	0.648900	0.194500	-0.164504
C123	C	0.188800	0.596000	0.256900	0.220397
C124	C	0.263900	0.671400	0.311100	0.189722
C125	C	0.053400	0.256400	0.150000	0.221721
C126	C	0.047400	0.197400	0.205700	-0.164752
C127	C	0.117000	0.194000	0.257500	-0.042703
C128	C	0.191600	0.249800	0.255100	0.001259
C129	C	0.194100	0.307300	0.196410	0.187087
C130	C	0.267800	0.250800	0.307600	-0.105911
C131	C	0.347500	0.301800	0.299600	-0.105911
C132	C	0.357300	0.359200	0.239250	0.001259
C133	C	0.449900	0.409400	0.225200	-0.042703
C134	C	0.456500	0.460700	0.167000	-0.164752
C135	C	0.368600	0.463400	0.122200	0.221721
C136	C	0.278000	0.362800	0.189520	0.187087
N1	N	0.779600	0.392230	0.685830	-0.497969
N2	N	0.696000	0.372740	0.571780	-0.497969
N3	N	0.231900	0.837480	0.584940	-0.477507
N4	N	0.369700	0.846400	0.685770	-0.477507
N5	N	0.876600	0.689000	0.855020	-0.458709
N6	N	0.717000	0.585180	0.868540	-0.458709
N7	N	0.555500	0.551900	0.609010	0.852735
N8	N	0.220400	0.607770	0.314170	-0.497969
N9	N	0.304000	0.627260	0.428220	-0.497969
N10	N	0.768100	0.162520	0.415060	-0.477507
N11	N	0.630300	0.153600	0.314230	-0.477507
N12	N	0.123400	0.311000	0.144980	-0.458709
N13	N	0.283000	0.414820	0.131460	-0.458709
N14	N	0.444500	0.448100	0.390990	0.852735
O1	O	0.134000	0.989550	0.562340	-0.654309
O2	O	0.185000	0.971720	0.666880	-0.654309
O3	O	0.517800	0.978910	0.626100	-0.705864
O4	O	0.645600	0.054360	0.544600	-0.705864
O5	O	0.530100	0.841070	0.545600	-0.657226
O6	O	0.613000	0.938880	0.482390	-0.830407
O7	O	0.811900	0.605010	0.528380	-0.728113
O8	O	0.005400	0.603310	0.451330	-0.728113
O9	O	0.836400	0.488070	0.448800	-0.728113
O10	O	0.033300	0.490480	0.373650	-0.728113
O11	O	0.853800	0.555270	0.080460	-0.714368
O12	O	0.987400	0.463570	0.127680	-0.714368
O13	O	0.840600	0.457630	0.987970	-0.714368
O14	O	0.976100	0.362800	0.027880	-0.714368
O15	O	0.313700	0.318360	0.012240	-0.670286
O16	O	0.382300	0.425970	0.982110	-0.670286
O17	O	0.582900	0.529630	0.552490	-0.634422
O18	O	0.640000	0.532100	0.648930	-0.634422
O19	O	0.454300	0.593200	0.626100	-0.391197
O20	O	0.866000	0.010450	0.437660	-0.654309
O21	O	0.815000	0.028280	0.333120	-0.654309
O22	O	0.482200	0.021090	0.373900	-0.705864
O23	O	0.354400	0.945640	0.455400	-0.705864
O24	O	0.469900	0.158930	0.454400	-0.657226
O25	O	0.387000	0.061120	0.517610	-0.830407
O26	O	0.188100	0.394990	0.471620	-0.728113
O27	O	0.994600	0.396690	0.548670	-0.728113
O28	O	0.163600	0.511930	0.551200	-0.728113
O29	O	0.966700	0.509520	0.626350	-0.728113
O30	O	0.146200	0.444730	0.919540	-0.714368
O31	O	0.012600	0.536430	0.872320	-0.714368
O32	O	0.159400	0.542370	0.012030	-0.714368
O33	O	0.023900	0.637200	0.972120	-0.714368
O34	O	0.686300	0.681640	0.987760	-0.670286
O35	O	0.617700	0.574030	0.017890	-0.670286
O36	O	0.417100	0.470370	0.447510	-0.634422
O37	O	0.360000	0.467900	0.351070	-0.634422
O38	O	0.545700	0.406800	0.373900	-0.391197
