data_CETVAA_clean_PM
_symmetry_space_group_name_H-M	'P1'
_cell_length_a	11.752600
_cell_length_b	11.752600
_cell_length_c	11.832300
_cell_angle_alpha	91.781202
_cell_angle_beta	91.781202
_cell_angle_gamma	105.187001
_symmetry_Int_Tables_number 1

loop_
_symmetry_equiv_pos_as_xyz
'x,y,z'

loop_
_atom_site_label
_atom_site_type_symbol
_atom_site_fract_x
_atom_site_fract_y
_atom_site_fract_z
_atom_site_charge
Cu1	Cu	0.129450	0.731220	0.530170	0.481327
Cu2	Cu	0.731220	0.129450	0.030170	0.481327
H1	H	0.125600	0.565400	0.725100	0.074931
H2	H	0.031500	0.521900	0.893200	0.124148
H3	H	0.889800	0.798200	0.850300	0.124148
H4	H	0.986800	0.832600	0.682800	0.074931
H5	H	0.617000	0.635800	0.088600	0.119986
H6	H	0.743100	0.698900	0.942400	0.098680
H7	H	0.974400	0.532000	0.075000	0.098680
H8	H	0.850700	0.471900	0.224100	0.119986
H9	H	0.960900	0.213700	0.932000	0.074931
H10	H	0.157900	0.304300	0.972200	0.124148
H11	H	0.077100	0.355700	0.297300	0.124148
H12	H	0.881700	0.266500	0.246400	0.074931
H13	H	0.460200	0.548800	0.355800	0.119986
H14	H	0.258000	0.479400	0.314300	0.098680
H15	H	0.325900	0.303100	0.034400	0.098680
H16	H	0.528100	0.372500	0.076600	0.119986
H17	H	0.791800	0.372000	0.938700	0.074931
H18	H	0.783000	0.461800	0.767800	0.124148
H19	H	0.702300	0.137500	0.612000	0.124148
H20	H	0.711600	0.057000	0.786600	0.074931
H21	H	0.530900	0.302700	0.341400	0.119986
H22	H	0.574000	0.226000	0.511700	0.098680
H23	H	0.857400	0.506800	0.571000	0.098680
H24	H	0.815300	0.585500	0.399900	0.119986
H25	H	0.565400	0.125600	0.225100	0.074931
H26	H	0.521900	0.031500	0.393200	0.124148
H27	H	0.798200	0.889800	0.350300	0.124148
H28	H	0.832600	0.986800	0.182800	0.074931
H29	H	0.635800	0.617000	0.588600	0.119986
H30	H	0.698900	0.743100	0.442400	0.098680
H31	H	0.532000	0.974400	0.575000	0.098680
H32	H	0.471900	0.850700	0.724100	0.119986
H33	H	0.213700	0.960900	0.432000	0.074931
H34	H	0.304300	0.157900	0.472200	0.124148
H35	H	0.355700	0.077100	0.797300	0.124148
H36	H	0.266500	0.881700	0.746400	0.074931
H37	H	0.548800	0.460200	0.855800	0.119986
H38	H	0.479400	0.258000	0.814300	0.098680
H39	H	0.303100	0.325900	0.534400	0.098680
H40	H	0.372500	0.528100	0.576600	0.119986
H41	H	0.372000	0.791800	0.438700	0.074931
H42	H	0.461800	0.783000	0.267800	0.124148
H43	H	0.137500	0.702300	0.112000	0.124148
H44	H	0.057000	0.711600	0.286600	0.074931
H45	H	0.302700	0.530900	0.841400	0.119986
H46	H	0.226000	0.574000	0.011700	0.098680
H47	H	0.506800	0.857400	0.071000	0.098680
H48	H	0.585500	0.815300	0.899900	0.119986
C1	C	0.075580	0.612000	0.750160	0.157620
C2	C	0.019470	0.585410	0.850920	-0.202846
C3	C	0.944680	0.652100	0.890670	0.093568
C4	C	0.936000	0.747540	0.825700	-0.202846
C5	C	0.994810	0.767910	0.725600	0.157620
C6	C	0.718800	0.543960	0.170210	0.148753
C7	C	0.689180	0.613840	0.085800	-0.154075
C8	C	0.764590	0.651210	0.998300	-0.086648
C9	C	0.871740	0.620140	0.990660	0.016879
C10	C	0.901650	0.552970	0.077130	-0.086648
C11	C	0.827470	0.516070	0.166050	-0.154075
C12	C	0.984960	0.242860	0.007120	0.157620
C13	C	0.103350	0.295650	0.030940	-0.202846
C14	C	0.143160	0.336480	0.141500	0.093568
C15	C	0.056070	0.326310	0.221720	-0.202846
C16	C	0.938920	0.273100	0.190320	0.157620
C17	C	0.513510	0.466830	0.220540	0.148753
C18	C	0.432670	0.498690	0.290670	-0.154075
C19	C	0.312360	0.457660	0.265850	-0.086648
C20	C	0.270620	0.384020	0.169270	0.016879
C21	C	0.352850	0.353070	0.099780	-0.086648
C22	C	0.473390	0.394090	0.124800	-0.154075
C23	C	0.772390	0.323890	0.871250	0.157620
C24	C	0.767090	0.378370	0.769400	-0.202846
C25	C	0.738110	0.308950	0.669310	0.093568
C26	C	0.719510	0.187810	0.678170	-0.202846
C27	C	0.725910	0.140150	0.782700	0.157620
C28	C	0.668250	0.452530	0.354340	0.148753
C29	C	0.596720	0.344580	0.387980	-0.154075
C30	C	0.622560	0.299340	0.489460	-0.086648
C31	C	0.718700	0.359400	0.559890	0.016879
C32	C	0.790780	0.465840	0.524880	-0.086648
C33	C	0.765990	0.512830	0.422740	-0.154075
C34	C	0.612000	0.075580	0.250160	0.157620
C35	C	0.585410	0.019470	0.350920	-0.202846
C36	C	0.652100	0.944680	0.390670	0.093568
C37	C	0.747540	0.936000	0.325700	-0.202846
C38	C	0.767910	0.994810	0.225600	0.157620
C39	C	0.543960	0.718800	0.670210	0.148753
C40	C	0.613840	0.689180	0.585800	-0.154075
C41	C	0.651210	0.764590	0.498300	-0.086648
C42	C	0.620140	0.871740	0.490660	0.016879
C43	C	0.552970	0.901650	0.577130	-0.086648
C44	C	0.516070	0.827470	0.666050	-0.154075
C45	C	0.242860	0.984960	0.507120	0.157620
C46	C	0.295650	0.103350	0.530940	-0.202846
C47	C	0.336480	0.143160	0.641500	0.093568
C48	C	0.326310	0.056070	0.721720	-0.202846
C49	C	0.273100	0.938920	0.690320	0.157620
C50	C	0.466830	0.513510	0.720540	0.148753
C51	C	0.498690	0.432670	0.790670	-0.154075
C52	C	0.457660	0.312360	0.765850	-0.086648
C53	C	0.384020	0.270620	0.669270	0.016879
C54	C	0.353070	0.352850	0.599780	-0.086648
C55	C	0.394090	0.473390	0.624800	-0.154075
C56	C	0.323890	0.772390	0.371250	0.157620
C57	C	0.378370	0.767090	0.269400	-0.202846
C58	C	0.308950	0.738110	0.169310	0.093568
C59	C	0.187810	0.719510	0.178170	-0.202846
C60	C	0.140150	0.725910	0.282700	0.157620
C61	C	0.452530	0.668250	0.854340	0.148753
C62	C	0.344580	0.596720	0.887980	-0.154075
C63	C	0.299340	0.622560	0.989460	-0.086648
C64	C	0.359400	0.718700	0.059890	0.016879
C65	C	0.465840	0.790780	0.024880	-0.086648
C66	C	0.512830	0.765990	0.922740	-0.154075
N1	N	0.062480	0.701040	0.685930	-0.276844
N2	N	0.902030	0.230630	0.085240	-0.276844
N3	N	0.751480	0.206840	0.878960	-0.276844
N4	N	0.636760	0.501740	0.253570	-0.105054
N5	N	0.701040	0.062480	0.185930	-0.276844
N6	N	0.230630	0.902030	0.585240	-0.276844
N7	N	0.206840	0.751480	0.378960	-0.276844
N8	N	0.501740	0.636760	0.753570	-0.105054
Cl1	Cl	0.115700	0.533820	0.495370	-0.557058
Cl2	Cl	0.964710	0.804530	0.455940	-0.557058
Cl3	Cl	0.533820	0.115700	0.995370	-0.557058
Cl4	Cl	0.804530	0.964710	0.955940	-0.557058
