data_CIFMEL_clean_PM
_symmetry_space_group_name_H-M	'P1'
_cell_length_a	14.651800
_cell_length_b	14.651800
_cell_length_c	14.651800
_cell_angle_alpha	90.000000
_cell_angle_beta	90.000000
_cell_angle_gamma	90.000000
_symmetry_Int_Tables_number 1

loop_
_symmetry_equiv_pos_as_xyz
'x,y,z'

loop_
_atom_site_label
_atom_site_type_symbol
_atom_site_fract_x
_atom_site_fract_y
_atom_site_fract_z
_atom_site_charge
Co1	Co	0.955760	0.544240	0.455760	1.071779
Co2	Co	0.816330	0.683670	0.316330	1.072979
Co3	Co	0.544240	0.455760	0.955760	1.071779
Co4	Co	0.683670	0.316330	0.816330	1.072979
Co5	Co	0.044240	0.044240	0.044240	1.071779
Co6	Co	0.183670	0.183670	0.183670	1.072979
Co7	Co	0.455760	0.955760	0.544240	1.071779
Co8	Co	0.316330	0.816330	0.683670	1.072979
H1	H	0.752200	0.469900	0.163200	0.107959
H2	H	0.747800	0.530100	0.663200	0.107959
H3	H	0.247800	0.969900	0.336800	0.107959
H4	H	0.252200	0.030100	0.836800	0.107959
H5	H	0.163200	0.752200	0.469900	0.107959
H6	H	0.663200	0.747800	0.530100	0.107959
H7	H	0.336800	0.247800	0.969900	0.107959
H8	H	0.836800	0.252200	0.030100	0.107959
H9	H	0.469900	0.163200	0.752200	0.107959
H10	H	0.530100	0.663200	0.747800	0.107959
H11	H	0.969900	0.336800	0.247800	0.107959
H12	H	0.030100	0.836800	0.252200	0.107959
C1	C	0.869200	0.486000	0.292700	0.707529
C2	C	0.794100	0.422700	0.156100	0.012231
C3	C	0.863300	0.415100	0.216400	-0.175039
C4	C	0.630800	0.514000	0.792700	0.707529
C5	C	0.705900	0.577300	0.656100	0.012231
C6	C	0.636700	0.584900	0.716400	-0.175039
C7	C	0.130800	0.986000	0.207300	0.707529
C8	C	0.205900	0.922700	0.343900	0.012231
C9	C	0.136700	0.915100	0.283600	-0.175039
C10	C	0.369200	0.014000	0.707300	0.707529
C11	C	0.294100	0.077300	0.843900	0.012231
C12	C	0.363300	0.084900	0.783600	-0.175039
C13	C	0.292700	0.869200	0.486000	0.707529
C14	C	0.156100	0.794100	0.422700	0.012231
C15	C	0.216400	0.863300	0.415100	-0.175039
C16	C	0.792700	0.630800	0.514000	0.707529
C17	C	0.656100	0.705900	0.577300	0.012231
C18	C	0.716400	0.636700	0.584900	-0.175039
C19	C	0.207300	0.130800	0.986000	0.707529
C20	C	0.343900	0.205900	0.922700	0.012231
C21	C	0.283600	0.136700	0.915100	-0.175039
C22	C	0.707300	0.369200	0.014000	0.707529
C23	C	0.843900	0.294100	0.077300	0.012231
C24	C	0.783600	0.363300	0.084900	-0.175039
C25	C	0.486000	0.292700	0.869200	0.707529
C26	C	0.422700	0.156100	0.794100	0.012231
C27	C	0.415100	0.216400	0.863300	-0.175039
C28	C	0.514000	0.792700	0.630800	0.707529
C29	C	0.577300	0.656100	0.705900	0.012231
C30	C	0.584900	0.716400	0.636700	-0.175039
C31	C	0.986000	0.207300	0.130800	0.707529
C32	C	0.922700	0.343900	0.205900	0.012231
C33	C	0.915100	0.283600	0.136700	-0.175039
C34	C	0.014000	0.707300	0.369200	0.707529
C35	C	0.077300	0.843900	0.294100	0.012231
C36	C	0.084900	0.783600	0.363300	-0.175039
Cl1	Cl	0.037900	0.462100	0.537900	-0.501010
Cl2	Cl	0.462100	0.537900	0.037900	-0.501010
Cl3	Cl	0.962100	0.962100	0.962100	-0.501010
Cl4	Cl	0.537900	0.037900	0.462100	-0.501010
O1	O	0.819500	0.552500	0.290300	-0.607315
O2	O	0.937000	0.468800	0.348900	-0.593280
O3	O	0.680500	0.447500	0.790300	-0.607315
O4	O	0.563000	0.531200	0.848900	-0.593280
O5	O	0.180500	0.052500	0.209700	-0.607315
O6	O	0.063000	0.968800	0.151100	-0.593280
O7	O	0.319500	0.947500	0.709700	-0.607315
O8	O	0.437000	0.031200	0.651100	-0.593280
O9	O	0.290300	0.819500	0.552500	-0.607315
O10	O	0.348900	0.937000	0.468800	-0.593280
O11	O	0.790300	0.680500	0.447500	-0.607315
O12	O	0.848900	0.563000	0.531200	-0.593280
O13	O	0.209700	0.180500	0.052500	-0.607315
O14	O	0.151100	0.063000	0.968800	-0.593280
O15	O	0.709700	0.319500	0.947500	-0.607315
O16	O	0.651100	0.437000	0.031200	-0.593280
O17	O	0.552500	0.290300	0.819500	-0.607315
O18	O	0.468800	0.348900	0.937000	-0.593280
O19	O	0.447500	0.790300	0.680500	-0.607315
O20	O	0.531200	0.848900	0.563000	-0.593280
O21	O	0.052500	0.209700	0.180500	-0.607315
O22	O	0.968800	0.151100	0.063000	-0.593280
O23	O	0.947500	0.709700	0.319500	-0.607315
O24	O	0.031200	0.651100	0.437000	-0.593280
