data_CODFEH_clean_PM
_symmetry_space_group_name_H-M	'P1'
_cell_length_a	7.953900
_cell_length_b	7.953900
_cell_length_c	13.189000
_cell_angle_alpha	90.000000
_cell_angle_beta	90.000000
_cell_angle_gamma	90.000000
_symmetry_Int_Tables_number 1

loop_
_symmetry_equiv_pos_as_xyz
'x,y,z'

loop_
_atom_site_label
_atom_site_type_symbol
_atom_site_fract_x
_atom_site_fract_y
_atom_site_fract_z
_atom_site_charge
Mn1	Mn	0.535100	0.135380	0.842230	1.146489
Mn2	Mn	0.464900	0.864620	0.342230	1.146489
Mn3	Mn	0.864620	0.535100	0.092230	1.146489
Mn4	Mn	0.135380	0.464900	0.592230	1.146489
H1	H	0.611000	0.084500	0.650700	0.364331
H2	H	0.708400	0.846000	0.635000	0.074675
H3	H	0.389000	0.752200	0.709400	0.155170
H4	H	0.523200	0.616000	0.681600	0.155170
H5	H	0.389000	0.915500	0.150700	0.364331
H6	H	0.291600	0.154000	0.135000	0.074675
H7	H	0.611000	0.247800	0.209400	0.155170
H8	H	0.476800	0.384000	0.181600	0.155170
H9	H	0.915500	0.611000	0.900700	0.364331
H10	H	0.154000	0.708400	0.885000	0.074675
H11	H	0.247800	0.389000	0.959400	0.155170
H12	H	0.384000	0.523200	0.931600	0.155170
H13	H	0.084500	0.389000	0.400700	0.364331
H14	H	0.846000	0.291600	0.385000	0.074675
H15	H	0.752200	0.611000	0.459400	0.155170
H16	H	0.616000	0.476800	0.431600	0.155170
C1	C	0.707400	0.810100	0.790400	0.617474
C2	C	0.623600	0.853000	0.688700	0.172357
C3	C	0.483700	0.728200	0.665400	-0.403099
C4	C	0.423700	0.729900	0.557200	0.814334
C5	C	0.292600	0.189900	0.290400	0.617474
C6	C	0.376400	0.147000	0.188700	0.172357
C7	C	0.516300	0.271800	0.165400	-0.403099
C8	C	0.576300	0.270100	0.057200	0.814334
C9	C	0.189900	0.707400	0.040400	0.617474
C10	C	0.147000	0.623600	0.938700	0.172357
C11	C	0.271800	0.483700	0.915400	-0.403099
C12	C	0.270100	0.423700	0.807200	0.814334
C13	C	0.810100	0.292600	0.540400	0.617474
C14	C	0.853000	0.376400	0.438700	0.172357
C15	C	0.728200	0.516300	0.415400	-0.403099
C16	C	0.729900	0.576300	0.307200	0.814334
O1	O	0.791900	0.680300	0.791600	-0.574303
O2	O	0.682600	0.904300	0.864320	-0.631890
O3	O	0.321600	0.620900	0.529410	-0.650505
O4	O	0.483700	0.836900	0.499400	-0.650505
O5	O	0.559000	0.020400	0.691640	-0.589698
O6	O	0.208100	0.319700	0.291600	-0.574303
O7	O	0.317400	0.095700	0.364320	-0.631890
O8	O	0.678400	0.379100	0.029410	-0.650505
O9	O	0.516300	0.163100	0.999400	-0.650505
O10	O	0.441000	0.979600	0.191640	-0.589698
O11	O	0.319700	0.791900	0.041600	-0.574303
O12	O	0.095700	0.682600	0.114320	-0.631890
O13	O	0.379100	0.321600	0.779410	-0.650505
O14	O	0.163100	0.483700	0.749400	-0.650505
O15	O	0.979600	0.559000	0.941640	-0.589698
O16	O	0.680300	0.208100	0.541600	-0.574303
O17	O	0.904300	0.317400	0.614320	-0.631890
O18	O	0.620900	0.678400	0.279410	-0.650505
O19	O	0.836900	0.516300	0.249400	-0.650505
O20	O	0.020400	0.441000	0.441640	-0.589698
