data_COWMOR_clean_PM
_symmetry_space_group_name_H-M	'P1'
_cell_length_a	9.563100
_cell_length_b	13.874100
_cell_length_c	15.300000
_cell_angle_alpha	90.000000
_cell_angle_beta	93.382002
_cell_angle_gamma	90.000000
_symmetry_Int_Tables_number 1

loop_
_symmetry_equiv_pos_as_xyz
'x,y,z'

loop_
_atom_site_label
_atom_site_type_symbol
_atom_site_fract_x
_atom_site_fract_y
_atom_site_fract_z
_atom_site_charge
Er1	Er	0.542670	0.889050	0.914230	1.515873
Er2	Er	0.957330	0.389050	0.585770	1.515873
Er3	Er	0.457330	0.110950	0.085770	1.515873
Er4	Er	0.042670	0.610950	0.414230	1.515873
H1	H	0.237000	0.188700	0.811600	0.093423
H2	H	0.169400	0.107000	0.752000	0.093423
H3	H	0.013100	0.235000	0.855600	0.116909
H4	H	0.808900	0.165300	0.795100	0.093569
H5	H	0.895400	0.094700	0.738800	0.093569
H6	H	0.907100	0.095500	0.925000	0.116457
H7	H	0.052700	0.962700	0.928400	0.093569
H8	H	0.053300	0.963700	0.825900	0.093569
H9	H	0.164300	0.112300	0.936300	0.119462
H10	H	0.263000	0.688700	0.688400	0.093423
H11	H	0.330600	0.607000	0.748000	0.093423
H12	H	0.486900	0.735000	0.644400	0.116909
H13	H	0.691100	0.665300	0.704900	0.093569
H14	H	0.604600	0.594700	0.761200	0.093569
H15	H	0.592900	0.595500	0.575000	0.116457
H16	H	0.447300	0.462700	0.571600	0.093569
H17	H	0.446700	0.463700	0.674100	0.093569
H18	H	0.335700	0.612300	0.563700	0.119462
H19	H	0.763000	0.811300	0.188400	0.093423
H20	H	0.830600	0.893000	0.248000	0.093423
H21	H	0.986900	0.765000	0.144400	0.116909
H22	H	0.191100	0.834700	0.204900	0.093569
H23	H	0.104600	0.905300	0.261200	0.093569
H24	H	0.092900	0.904500	0.075000	0.116457
H25	H	0.947300	0.037300	0.071600	0.093569
H26	H	0.946700	0.036300	0.174100	0.093569
H27	H	0.835700	0.887700	0.063700	0.119462
H28	H	0.737000	0.311300	0.311600	0.093423
H29	H	0.669400	0.393000	0.252000	0.093423
H30	H	0.513100	0.265000	0.355600	0.116909
H31	H	0.308900	0.334700	0.295100	0.093569
H32	H	0.395400	0.405300	0.238800	0.093569
H33	H	0.407100	0.404500	0.425000	0.116457
H34	H	0.552700	0.537300	0.428400	0.093569
H35	H	0.553300	0.536300	0.325900	0.093569
H36	H	0.664300	0.387700	0.436300	0.119462
C1	C	0.160600	0.142800	0.805900	-0.098297
C2	C	0.018900	0.197400	0.801700	-0.153190
C3	C	0.895600	0.129200	0.793900	-0.105344
C4	C	0.906200	0.055600	0.872200	-0.136435
C5	C	0.046900	0.004200	0.877200	-0.100255
C6	C	0.169600	0.074300	0.882600	-0.169453
C7	C	0.306600	0.019500	0.888100	0.724296
C8	C	0.003700	0.265200	0.724800	0.716446
C9	C	0.780500	0.991200	0.877400	0.633329
C10	C	0.339400	0.642800	0.694100	-0.098297
C11	C	0.481100	0.697400	0.698300	-0.153190
C12	C	0.604400	0.629200	0.706100	-0.105344
C13	C	0.593800	0.555600	0.627800	-0.136435
C14	C	0.453100	0.504200	0.622800	-0.100255
C15	C	0.330400	0.574300	0.617400	-0.169453
C16	C	0.193400	0.519500	0.611900	0.724296
C17	C	0.496300	0.765200	0.775200	0.716446
C18	C	0.719500	0.491200	0.622600	0.633329
C19	C	0.839400	0.857200	0.194100	-0.098297
C20	C	0.981100	0.802600	0.198300	-0.153190
C21	C	0.104400	0.870800	0.206100	-0.105344
C22	C	0.093800	0.944400	0.127800	-0.136435
C23	C	0.953100	0.995800	0.122800	-0.100255
C24	C	0.830400	0.925700	0.117400	-0.169453
C25	C	0.693400	0.980500	0.111900	0.724296
C26	C	0.996300	0.734800	0.275200	0.716446
C27	C	0.219500	0.008800	0.122600	0.633329
C28	C	0.660600	0.357200	0.305900	-0.098297
C29	C	0.518900	0.302600	0.301700	-0.153190
C30	C	0.395600	0.370800	0.293900	-0.105344
C31	C	0.406200	0.444400	0.372200	-0.136435
C32	C	0.546900	0.495800	0.377200	-0.100255
C33	C	0.669600	0.425700	0.382600	-0.169453
C34	C	0.806600	0.480500	0.388100	0.724296
C35	C	0.503700	0.234800	0.224800	0.716446
C36	C	0.280500	0.508800	0.377400	0.633329
O1	O	0.336000	0.955700	0.834800	-0.603058
O2	O	0.394200	0.037500	0.951700	-0.727712
O3	O	0.067600	0.253700	0.656000	-0.619210
O4	O	0.922300	0.336700	0.730400	-0.619210
O5	O	0.793900	0.905700	0.898800	-0.585866
O6	O	0.658800	0.029100	0.863500	-0.585866
O7	O	0.164000	0.455700	0.665200	-0.603058
O8	O	0.105800	0.537500	0.548300	-0.727712
O9	O	0.432400	0.753700	0.844000	-0.619210
O10	O	0.577700	0.836700	0.769600	-0.619210
O11	O	0.706100	0.405700	0.601200	-0.585866
O12	O	0.841200	0.529100	0.636500	-0.585866
O13	O	0.664000	0.044300	0.165200	-0.603058
O14	O	0.605800	0.962500	0.048300	-0.727712
O15	O	0.932400	0.746300	0.344000	-0.619210
O16	O	0.077700	0.663300	0.269600	-0.619210
O17	O	0.206100	0.094300	0.101200	-0.585866
O18	O	0.341200	0.970900	0.136500	-0.585866
O19	O	0.836000	0.544300	0.334800	-0.603058
O20	O	0.894200	0.462500	0.451700	-0.727712
O21	O	0.567600	0.246300	0.156000	-0.619210
O22	O	0.422300	0.163300	0.230400	-0.619210
O23	O	0.293900	0.594300	0.398800	-0.585866
O24	O	0.158800	0.470900	0.363500	-0.585866
