data_COYTOA_clean_PM
_symmetry_space_group_name_H-M	'P1'
_cell_length_a	12.064800
_cell_length_b	12.378700
_cell_length_c	12.514800
_cell_angle_alpha	90.000000
_cell_angle_beta	90.000000
_cell_angle_gamma	115.069002
_symmetry_Int_Tables_number 1

loop_
_symmetry_equiv_pos_as_xyz
'x,y,z'

loop_
_atom_site_label
_atom_site_type_symbol
_atom_site_fract_x
_atom_site_fract_y
_atom_site_fract_z
_atom_site_charge
Sm1	Sm	0.040330	0.354830	0.550750	2.246870
Sm2	Sm	0.959670	0.145170	0.050750	2.246870
Sm3	Sm	0.959670	0.645170	0.449250	2.246870
Sm4	Sm	0.040330	0.854830	0.949250	2.246870
H1	H	0.129600	0.172200	0.717600	0.405798
H2	H	0.566300	0.248800	0.645600	0.129559
H3	H	0.699500	0.074900	0.838500	0.129559
H4	H	0.404500	0.172300	0.717700	0.129559
H5	H	0.512100	0.947800	0.870100	0.129559
H6	H	0.870400	0.327800	0.217600	0.405798
H7	H	0.433700	0.251200	0.145600	0.129559
H8	H	0.300500	0.425100	0.338500	0.129559
H9	H	0.595500	0.327700	0.217700	0.129559
H10	H	0.487900	0.552200	0.370100	0.129559
H11	H	0.870400	0.827800	0.282400	0.405798
H12	H	0.433700	0.751200	0.354400	0.129559
H13	H	0.300500	0.925100	0.161500	0.129559
H14	H	0.595500	0.827700	0.282300	0.129559
H15	H	0.487900	0.052200	0.129900	0.129559
H16	H	0.129600	0.672200	0.782400	0.405798
H17	H	0.566300	0.748800	0.854400	0.129559
H18	H	0.699500	0.574900	0.661500	0.129559
H19	H	0.404500	0.672300	0.782300	0.129559
H20	H	0.512100	0.447800	0.629900	0.129559
C1	C	0.775800	0.393700	0.552300	0.659087
C2	C	0.935100	0.179900	0.772800	0.687607
C3	C	0.164500	0.059200	0.768900	0.659983
C4	C	0.291600	0.800700	0.955400	0.625245
C5	C	0.746900	0.294800	0.629400	0.179007
C6	C	0.630100	0.232200	0.670200	-0.139441
C7	C	0.607800	0.145400	0.746900	0.075988
C8	C	0.708700	0.129200	0.784100	-0.136110
C9	C	0.821500	0.193900	0.739700	0.156301
C10	C	0.271900	0.033500	0.792200	0.160644
C11	C	0.388600	0.104500	0.758500	-0.139192
C12	C	0.482200	0.073300	0.786100	0.075988
C13	C	0.451900	0.971700	0.849300	-0.140160
C14	C	0.332300	0.907100	0.880700	0.159179
C15	C	0.224200	0.106300	0.052300	0.659087
C16	C	0.064900	0.320100	0.272800	0.687607
C17	C	0.835500	0.440800	0.268900	0.659983
C18	C	0.708400	0.699300	0.455400	0.625245
C19	C	0.253100	0.205200	0.129400	0.179007
C20	C	0.369900	0.267800	0.170200	-0.139441
C21	C	0.392200	0.354600	0.246900	0.075988
C22	C	0.291300	0.370800	0.284100	-0.136110
C23	C	0.178500	0.306100	0.239700	0.156301
C24	C	0.728100	0.466500	0.292200	0.160644
C25	C	0.611400	0.395500	0.258500	-0.139192
C26	C	0.517800	0.426700	0.286100	0.075988
C27	C	0.548100	0.528300	0.349300	-0.140160
C28	C	0.667700	0.592900	0.380700	0.159179
C29	C	0.224200	0.606300	0.447700	0.659087
C30	C	0.064900	0.820100	0.227200	0.687607
C31	C	0.835500	0.940800	0.231100	0.659983
C32	C	0.708400	0.199300	0.044600	0.625245
C33	C	0.253100	0.705200	0.370600	0.179007
C34	C	0.369900	0.767800	0.329800	-0.139441
C35	C	0.392200	0.854600	0.253100	0.075988
C36	C	0.291300	0.870800	0.215900	-0.136110
C37	C	0.178500	0.806100	0.260300	0.156301
C38	C	0.728100	0.966500	0.207800	0.160644
C39	C	0.611400	0.895500	0.241500	-0.139192
C40	C	0.517800	0.926700	0.213900	0.075988
C41	C	0.548100	0.028300	0.150700	-0.140160
C42	C	0.667700	0.092900	0.119300	0.159179
C43	C	0.775800	0.893700	0.947700	0.659087
C44	C	0.935100	0.679900	0.727200	0.687607
C45	C	0.164500	0.559200	0.731100	0.659983
C46	C	0.291600	0.300700	0.544600	0.625245
C47	C	0.746900	0.794800	0.870600	0.179007
C48	C	0.630100	0.732200	0.829800	-0.139441
C49	C	0.607800	0.645400	0.753100	0.075988
C50	C	0.708700	0.629200	0.715900	-0.136110
C51	C	0.821500	0.693900	0.760300	0.156301
C52	C	0.271900	0.533500	0.707800	0.160644
C53	C	0.388600	0.604500	0.741500	-0.139192
C54	C	0.482200	0.573300	0.713900	0.075988
C55	C	0.451900	0.471700	0.650700	-0.140160
C56	C	0.332300	0.407100	0.619300	0.159179
N1	N	0.841200	0.272800	0.660200	-0.446530
N2	N	0.242800	0.936900	0.851800	-0.448277
N3	N	0.158800	0.227200	0.160200	-0.446530
N4	N	0.757200	0.563100	0.351800	-0.448277
N5	N	0.158800	0.727200	0.339800	-0.446530
N6	N	0.757200	0.063100	0.148200	-0.448277
N7	N	0.841200	0.772800	0.839800	-0.446530
N8	N	0.242800	0.436900	0.648200	-0.448277
O1	O	0.881300	0.429200	0.504700	-0.861883
O2	O	0.705300	0.438900	0.540500	-0.487886
O3	O	0.021100	0.219500	0.704000	-0.694114
O4	O	0.938700	0.135700	0.859800	-0.694114
O5	O	0.060900	0.984500	0.785200	-0.677573
O6	O	0.192500	0.164900	0.731800	-0.468418
O7	O	0.181400	0.763100	0.987700	-0.730412
O8	O	0.366300	0.761400	0.977800	-0.545825
O9	O	0.118700	0.070800	0.004700	-0.861883
O10	O	0.294700	0.061100	0.040500	-0.487886
O11	O	0.978900	0.280500	0.204000	-0.694114
O12	O	0.061300	0.364300	0.359800	-0.694114
O13	O	0.939100	0.515500	0.285200	-0.677573
O14	O	0.807500	0.335100	0.231800	-0.468418
O15	O	0.818600	0.736900	0.487700	-0.730412
O16	O	0.633700	0.738600	0.477800	-0.545825
O17	O	0.118700	0.570800	0.495300	-0.861883
O18	O	0.294700	0.561100	0.459500	-0.487886
O19	O	0.978900	0.780500	0.296000	-0.694114
O20	O	0.061300	0.864300	0.140200	-0.694114
O21	O	0.939100	0.015500	0.214800	-0.677573
O22	O	0.807500	0.835100	0.268200	-0.468418
O23	O	0.818600	0.236900	0.012300	-0.730412
O24	O	0.633700	0.238600	0.022200	-0.545825
O25	O	0.881300	0.929200	0.995300	-0.861883
O26	O	0.705300	0.938900	0.959500	-0.487886
O27	O	0.021100	0.719500	0.796000	-0.694114
O28	O	0.938700	0.635700	0.640200	-0.694114
O29	O	0.060900	0.484500	0.714800	-0.677573
O30	O	0.192500	0.664900	0.768200	-0.468418
O31	O	0.181400	0.263100	0.512300	-0.730412
O32	O	0.366300	0.261400	0.522200	-0.545825
