data_COYTIU_clean_PM
_symmetry_space_group_name_H-M	'P1'
_cell_length_a	12.134000
_cell_length_b	12.391000
_cell_length_c	12.720000
_cell_angle_alpha	90.000000
_cell_angle_beta	90.000000
_cell_angle_gamma	114.777000
_symmetry_Int_Tables_number 1

loop_
_symmetry_equiv_pos_as_xyz
'x,y,z'

loop_
_atom_site_label
_atom_site_type_symbol
_atom_site_fract_x
_atom_site_fract_y
_atom_site_fract_z
_atom_site_charge
Ce1	Ce	0.544900	0.853650	0.546610	2.213730
Ce2	Ce	0.455100	0.646350	0.046610	2.213730
Ce3	Ce	0.455100	0.146350	0.453390	2.213730
Ce4	Ce	0.544900	0.353650	0.953390	2.213730
H1	H	0.621000	0.673000	0.722000	0.402523
H2	H	0.067900	0.753500	0.645400	0.127189
H3	H	0.201600	0.574400	0.836400	0.127189
H4	H	0.905400	0.673100	0.716300	0.127189
H5	H	0.020500	0.451500	0.869000	0.127189
H6	H	0.379000	0.827000	0.222000	0.402523
H7	H	0.932100	0.746500	0.145400	0.127189
H8	H	0.798400	0.925600	0.336400	0.127189
H9	H	0.094600	0.826900	0.216300	0.127189
H10	H	0.979500	0.048500	0.369000	0.127189
H11	H	0.379000	0.327000	0.278000	0.402523
H12	H	0.932100	0.246500	0.354600	0.127189
H13	H	0.798400	0.425600	0.163600	0.127189
H14	H	0.094600	0.326900	0.283700	0.127189
H15	H	0.979500	0.548500	0.131000	0.127189
H16	H	0.621000	0.173000	0.778000	0.402523
H17	H	0.067900	0.253500	0.854600	0.127189
H18	H	0.201600	0.074400	0.663600	0.127189
H19	H	0.905400	0.173100	0.783700	0.127189
H20	H	0.020500	0.951500	0.631000	0.127189
C1	C	0.278500	0.894300	0.551200	0.647979
C2	C	0.434900	0.677200	0.767500	0.677127
C3	C	0.667000	0.556300	0.766000	0.651814
C4	C	0.801800	0.302700	0.954000	0.619667
C5	C	0.247900	0.794800	0.628400	0.179005
C6	C	0.132200	0.735000	0.669200	-0.144131
C7	C	0.110700	0.647400	0.745300	0.072104
C8	C	0.210500	0.629100	0.781200	-0.139643
C9	C	0.322600	0.692100	0.734700	0.149074
C10	C	0.774900	0.531500	0.790700	0.158163
C11	C	0.890700	0.604300	0.757200	-0.143122
C12	C	0.985800	0.574300	0.784800	0.072104
C13	C	0.958300	0.474400	0.847800	-0.143661
C14	C	0.838800	0.408200	0.879700	0.154625
C15	C	0.721500	0.605700	0.051200	0.647979
C16	C	0.565100	0.822800	0.267500	0.677127
C17	C	0.333000	0.943700	0.266000	0.651814
C18	C	0.198200	0.197300	0.454000	0.619667
C19	C	0.752100	0.705200	0.128400	0.179005
C20	C	0.867800	0.765000	0.169200	-0.144131
C21	C	0.889300	0.852600	0.245300	0.072104
C22	C	0.789500	0.870900	0.281200	-0.139643
C23	C	0.677400	0.807900	0.234700	0.149074
C24	C	0.225100	0.968500	0.290700	0.158163
C25	C	0.109300	0.895700	0.257200	-0.143122
C26	C	0.014200	0.925700	0.284800	0.072104
C27	C	0.041700	0.025600	0.347800	-0.143661
C28	C	0.161200	0.091800	0.379700	0.154625
C29	C	0.721500	0.105700	0.448800	0.647979
C30	C	0.565100	0.322800	0.232500	0.677127
C31	C	0.333000	0.443700	0.234000	0.651814
C32	C	0.198200	0.697300	0.046000	0.619667
C33	C	0.752100	0.205200	0.371600	0.179005
C34	C	0.867800	0.265000	0.330800	-0.144131
C35	C	0.889300	0.352600	0.254700	0.072104
C36	C	0.789500	0.370900	0.218800	-0.139643
C37	C	0.677400	0.307900	0.265300	0.149074
C38	C	0.225100	0.468500	0.209300	0.158163
C39	C	0.109300	0.395700	0.242800	-0.143122
C40	C	0.014200	0.425700	0.215200	0.072104
C41	C	0.041700	0.525600	0.152200	-0.143661
C42	C	0.161200	0.591800	0.120300	0.154625
C43	C	0.278500	0.394300	0.948800	0.647979
C44	C	0.434900	0.177200	0.732500	0.677127
C45	C	0.667000	0.056300	0.734000	0.651814
C46	C	0.801800	0.802700	0.546000	0.619667
C47	C	0.247900	0.294800	0.871600	0.179005
C48	C	0.132200	0.235000	0.830800	-0.144131
C49	C	0.110700	0.147400	0.754700	0.072104
C50	C	0.210500	0.129100	0.718800	-0.139643
C51	C	0.322600	0.192100	0.765300	0.149074
C52	C	0.774900	0.031500	0.709300	0.158163
C53	C	0.890700	0.104300	0.742800	-0.143122
C54	C	0.985800	0.074300	0.715200	0.072104
C55	C	0.958300	0.974400	0.652200	-0.143661
C56	C	0.838800	0.908200	0.620300	0.154625
N1	N	0.341180	0.770600	0.657330	-0.429767
N2	N	0.748330	0.435100	0.849810	-0.430903
N3	N	0.658820	0.729400	0.157330	-0.429767
N4	N	0.251670	0.064900	0.349810	-0.430903
N5	N	0.658820	0.229400	0.342670	-0.429767
N6	N	0.251670	0.564900	0.150190	-0.430903
N7	N	0.341180	0.270600	0.842670	-0.429767
N8	N	0.748330	0.935100	0.650190	-0.430903
O1	O	0.380980	0.925620	0.502570	-0.817735
O2	O	0.210480	0.944010	0.540930	-0.486245
O3	O	0.520070	0.712710	0.699330	-0.681344
O4	O	0.438180	0.633560	0.853400	-0.681344
O5	O	0.563320	0.480810	0.784080	-0.661783
O6	O	0.694640	0.660900	0.727800	-0.475058
O7	O	0.693340	0.263860	0.989010	-0.711732
O8	O	0.878070	0.264700	0.974290	-0.560202
O9	O	0.619020	0.574380	0.002570	-0.817735
O10	O	0.789520	0.555990	0.040930	-0.486245
O11	O	0.479930	0.787290	0.199330	-0.681344
O12	O	0.561820	0.866440	0.353400	-0.681344
O13	O	0.436680	0.019190	0.284080	-0.661783
O14	O	0.305360	0.839100	0.227800	-0.475058
O15	O	0.306660	0.236140	0.489010	-0.711732
O16	O	0.121930	0.235300	0.474290	-0.560202
O17	O	0.619020	0.074380	0.497430	-0.817735
O18	O	0.789520	0.055990	0.459070	-0.486245
O19	O	0.479930	0.287290	0.300670	-0.681344
O20	O	0.561820	0.366440	0.146600	-0.681344
O21	O	0.436680	0.519190	0.215920	-0.661783
O22	O	0.305360	0.339100	0.272200	-0.475058
O23	O	0.306660	0.736140	0.010990	-0.711732
O24	O	0.121930	0.735300	0.025710	-0.560202
O25	O	0.380980	0.425620	0.997430	-0.817735
O26	O	0.210480	0.444010	0.959070	-0.486245
O27	O	0.520070	0.212710	0.800670	-0.681344
O28	O	0.438180	0.133560	0.646600	-0.681344
O29	O	0.563320	0.980810	0.715920	-0.661783
O30	O	0.694640	0.160900	0.772200	-0.475058
O31	O	0.693340	0.763860	0.510990	-0.711732
O32	O	0.878070	0.764700	0.525710	-0.560202
