data_CUGLTM01_clean_PM
_symmetry_space_group_name_H-M	'P1'
_cell_length_a	7.225500
_cell_length_b	10.305300
_cell_length_c	11.049900
_cell_angle_alpha	90.000000
_cell_angle_beta	90.000000
_cell_angle_gamma	90.000000
_symmetry_Int_Tables_number 1

loop_
_symmetry_equiv_pos_as_xyz
'x,y,z'

loop_
_atom_site_label
_atom_site_type_symbol
_atom_site_fract_x
_atom_site_fract_y
_atom_site_fract_z
_atom_site_charge
Cu1	Cu	0.100660	0.933200	0.529340	0.887482
Cu2	Cu	0.399340	0.066800	0.029340	0.887482
Cu3	Cu	0.899340	0.433200	0.970660	0.887482
Cu4	Cu	0.600660	0.566800	0.470660	0.887482
H1	H	0.162000	0.728000	0.278800	0.089610
H2	H	0.214600	0.949500	0.302100	0.305540
H3	H	0.300600	0.850100	0.373500	0.305540
H4	H	0.900800	0.760100	0.169500	0.089168
H5	H	0.008600	0.879200	0.154100	0.089168
H6	H	0.712300	0.868800	0.311300	0.127414
H7	H	0.835500	0.005700	0.306300	0.127414
H8	H	0.338000	0.272000	0.778800	0.089610
H9	H	0.285400	0.050500	0.802100	0.305540
H10	H	0.199400	0.149900	0.873500	0.305540
H11	H	0.599200	0.239900	0.669500	0.089168
H12	H	0.491400	0.120800	0.654100	0.089168
H13	H	0.787700	0.131200	0.811300	0.127414
H14	H	0.664500	0.994300	0.806300	0.127414
H15	H	0.838000	0.228000	0.221200	0.089610
H16	H	0.785400	0.449500	0.197900	0.305540
H17	H	0.699400	0.350100	0.126500	0.305540
H18	H	0.099200	0.260100	0.330500	0.089168
H19	H	0.991400	0.379200	0.345900	0.089168
H20	H	0.287700	0.368800	0.188700	0.127414
H21	H	0.164500	0.505700	0.193700	0.127414
H22	H	0.662000	0.772000	0.721200	0.089610
H23	H	0.714600	0.550500	0.697900	0.305540
H24	H	0.800600	0.649900	0.626500	0.305540
H25	H	0.400800	0.739900	0.830500	0.089168
H26	H	0.508600	0.620800	0.845900	0.089168
H27	H	0.212300	0.631200	0.688700	0.127414
H28	H	0.335500	0.494300	0.693700	0.127414
C1	C	0.971900	0.715300	0.409800	0.639769
C2	C	0.078900	0.784300	0.311000	0.053931
C3	C	0.949100	0.831200	0.213300	-0.113454
C4	C	0.793200	0.918600	0.256900	-0.313073
C5	C	0.672600	0.969100	0.154900	0.695356
C6	C	0.528100	0.284700	0.909800	0.639769
C7	C	0.421100	0.215700	0.811000	0.053931
C8	C	0.550900	0.168800	0.713300	-0.113454
C9	C	0.706800	0.081400	0.756900	-0.313073
C10	C	0.827400	0.030900	0.654900	0.695356
C11	C	0.028100	0.215300	0.090200	0.639769
C12	C	0.921100	0.284300	0.189000	0.053931
C13	C	0.050900	0.331200	0.286700	-0.113454
C14	C	0.206800	0.418600	0.243100	-0.313073
C15	C	0.327400	0.469100	0.345100	0.695356
C16	C	0.471900	0.784700	0.590200	0.639769
C17	C	0.578900	0.715700	0.689000	0.053931
C18	C	0.449100	0.668800	0.786700	-0.113454
C19	C	0.293200	0.581400	0.743100	-0.313073
C20	C	0.172600	0.530900	0.845100	0.695356
N1	N	0.190000	0.891600	0.362500	-0.670462
N2	N	0.310000	0.108400	0.862500	-0.670462
N3	N	0.810000	0.391600	0.137500	-0.670462
N4	N	0.690000	0.608400	0.637500	-0.670462
O1	O	0.980100	0.762100	0.517000	-0.557711
O2	O	0.875900	0.620600	0.380500	-0.557711
O3	O	0.525300	0.029000	0.184600	-0.595996
O4	O	0.713800	0.949100	0.047100	-0.601985
O5	O	0.519900	0.237900	0.017000	-0.557711
O6	O	0.624100	0.379400	0.880500	-0.557711
O7	O	0.974700	0.971000	0.684600	-0.595996
O8	O	0.786200	0.050900	0.547100	-0.601985
O9	O	0.019900	0.262100	0.983000	-0.557711
O10	O	0.124100	0.120600	0.119500	-0.557711
O11	O	0.474700	0.529000	0.315400	-0.595996
O12	O	0.286200	0.449100	0.452900	-0.601985
O13	O	0.480100	0.737900	0.483000	-0.557711
O14	O	0.375900	0.879400	0.619500	-0.557711
O15	O	0.025300	0.471000	0.815400	-0.595996
O16	O	0.213800	0.550900	0.952900	-0.601985
