data_CUYHIO_clean_PM
_symmetry_space_group_name_H-M	'P1'
_cell_length_a	6.204700
_cell_length_b	17.746000
_cell_length_c	20.423000
_cell_angle_alpha	90.000000
_cell_angle_beta	98.452301
_cell_angle_gamma	90.000000
_symmetry_Int_Tables_number 1

loop_
_symmetry_equiv_pos_as_xyz
'x,y,z'

loop_
_atom_site_label
_atom_site_type_symbol
_atom_site_fract_x
_atom_site_fract_y
_atom_site_fract_z
_atom_site_charge
Zn1	Zn	0.211910	0.513800	0.280620	0.854875
Zn2	Zn	0.288090	0.013800	0.219380	0.854875
Zn3	Zn	0.788090	0.486200	0.719380	0.854875
Zn4	Zn	0.711910	0.986200	0.780620	0.854875
H1	H	0.643400	0.714000	0.265500	0.138443
H2	H	0.443500	0.758800	0.284800	0.138443
H3	H	0.661100	0.683600	0.152600	0.105903
H4	H	0.545500	0.699200	0.042600	0.098023
H5	H	0.206600	0.749400	0.007200	0.098023
H6	H	0.993800	0.790900	0.083800	0.105903
H7	H	0.903800	0.792700	0.193200	0.138443
H8	H	0.058700	0.754200	0.251100	0.138443
H9	H	0.751600	0.473200	0.223700	0.082559
H10	H	0.527300	0.470300	0.125900	0.127563
H11	H	0.979000	0.577500	0.042600	0.127563
H12	H	0.199100	0.577000	0.141800	0.082559
H13	H	0.634900	0.549600	0.974200	0.104395
H14	H	0.892700	0.606400	0.344100	0.082559
H15	H	0.656200	0.595600	0.418800	0.127563
H16	H	0.855000	0.383200	0.452300	0.127563
H17	H	0.084200	0.399000	0.376200	0.082559
H18	H	0.578800	0.429400	0.513700	0.104395
H19	H	0.856600	0.214000	0.234500	0.138443
H20	H	0.056500	0.258800	0.215200	0.138443
H21	H	0.838900	0.183600	0.347400	0.105903
H22	H	0.954500	0.199200	0.457400	0.098023
H23	H	0.293400	0.249400	0.492800	0.098023
H24	H	0.506200	0.290900	0.416200	0.105903
H25	H	0.596200	0.292700	0.306800	0.138443
H26	H	0.441300	0.254200	0.248900	0.138443
H27	H	0.748400	0.973200	0.276300	0.082559
H28	H	0.972700	0.970300	0.374100	0.127563
H29	H	0.521000	0.077500	0.457400	0.127563
H30	H	0.300900	0.077000	0.358200	0.082559
H31	H	0.865100	0.049600	0.525800	0.104395
H32	H	0.607300	0.106400	0.155900	0.082559
H33	H	0.843800	0.095600	0.081200	0.127563
H34	H	0.645000	0.883200	0.047700	0.127563
H35	H	0.415800	0.899000	0.123800	0.082559
H36	H	0.921200	0.929400	0.986300	0.104395
H37	H	0.356600	0.286000	0.734500	0.138443
H38	H	0.556500	0.241200	0.715200	0.138443
H39	H	0.338900	0.316400	0.847400	0.105903
H40	H	0.454500	0.300800	0.957400	0.098023
H41	H	0.793400	0.250600	0.992800	0.098023
H42	H	0.006200	0.209100	0.916200	0.105903
H43	H	0.096200	0.207300	0.806800	0.138443
H44	H	0.941300	0.245800	0.748900	0.138443
H45	H	0.248400	0.526800	0.776300	0.082559
H46	H	0.472700	0.529700	0.874100	0.127563
H47	H	0.021000	0.422500	0.957400	0.127563
H48	H	0.800900	0.423000	0.858200	0.082559
H49	H	0.365100	0.450400	0.025800	0.104395
H50	H	0.107300	0.393600	0.655900	0.082559
H51	H	0.343800	0.404400	0.581200	0.127563
H52	H	0.145000	0.616800	0.547700	0.127563
H53	H	0.915800	0.601000	0.623800	0.082559
H54	H	0.421200	0.570600	0.486300	0.104395
H55	H	0.143400	0.786000	0.765500	0.138443
H56	H	0.943500	0.741200	0.784800	0.138443
H57	H	0.161100	0.816400	0.652600	0.105903
H58	H	0.045500	0.800800	0.542600	0.098023
H59	H	0.706600	0.750600	0.507200	0.098023
H60	H	0.493800	0.709100	0.583800	0.105903
H61	H	0.403800	0.707300	0.693200	0.138443
H62	H	0.558700	0.745800	0.751100	0.138443
H63	H	0.251600	0.026800	0.723700	0.082559
H64	H	0.027300	0.029700	0.625900	0.127563
H65	H	0.479000	0.922500	0.542600	0.127563
H66	H	0.699100	0.923000	0.641800	0.082559
H67	H	0.134900	0.950400	0.474200	0.104395
H68	H	0.392700	0.893600	0.844100	0.082559
H69	H	0.156200	0.904400	0.918800	0.127563
H70	H	0.355000	0.116800	0.952300	0.127563
H71	H	0.584200	0.101000	0.876200	0.082559
H72	H	0.078800	0.070600	0.013700	0.104395
C1	C	0.391400	0.645300	0.280500	0.716448
C2	C	0.485700	0.717100	0.258800	-0.370649
C3	C	0.401700	0.730000	0.185700	0.065568
C4	C	0.526600	0.705900	0.138800	-0.138709
C5	C	0.457200	0.714300	0.073300	-0.068277
C6	C	0.256900	0.744900	0.052200	-0.068277
C7	C	0.128800	0.769300	0.098500	-0.138709
C8	C	0.197100	0.762200	0.166200	0.065568
C9	C	0.053200	0.790100	0.215100	-0.370649
C10	C	0.120600	0.867100	0.243500	0.716448
C11	C	0.800700	0.493700	0.186700	0.173382
C12	C	0.664400	0.492200	0.128000	-0.198774
C13	C	0.726600	0.522400	0.072000	0.128530
C14	C	0.930700	0.555100	0.078900	-0.198774
C15	C	0.062400	0.554800	0.138800	0.173382
C16	C	0.591200	0.520300	0.007600	-0.122158
C17	C	0.884500	0.560700	0.365900	0.173382
C18	C	0.741900	0.554600	0.410800	-0.198774
C19	C	0.724500	0.487000	0.444600	0.128530
C20	C	0.858400	0.429200	0.430600	-0.198774
C21	C	0.996600	0.439300	0.384900	0.173382
C22	C	0.572400	0.475700	0.492200	-0.122158
C23	C	0.108600	0.145300	0.219500	0.716448
C24	C	0.014300	0.217100	0.241200	-0.370649
C25	C	0.098300	0.230000	0.314300	0.065568
C26	C	0.973400	0.205900	0.361200	-0.138709
C27	C	0.042800	0.214300	0.426700	-0.068277
C28	C	0.243100	0.244900	0.447800	-0.068277
C29	C	0.371200	0.269300	0.401500	-0.138709
C30	C	0.302900	0.262200	0.333800	0.065568
C31	C	0.446800	0.290100	0.284900	-0.370649
C32	C	0.379400	0.367100	0.256500	0.716448
C33	C	0.699300	0.993700	0.313300	0.173382
C34	C	0.835600	0.992200	0.372000	-0.198774
C35	C	0.773400	0.022400	0.428000	0.128530
C36	C	0.569300	0.055100	0.421100	-0.198774
C37	C	0.437600	0.054800	0.361200	0.173382
C38	C	0.908800	0.020300	0.492400	-0.122158
C39	C	0.615500	0.060700	0.134100	0.173382
C40	C	0.758100	0.054600	0.089200	-0.198774
C41	C	0.775500	0.987000	0.055400	0.128530
C42	C	0.641600	0.929200	0.069400	-0.198774
C43	C	0.503400	0.939300	0.115100	0.173382
C44	C	0.927600	0.975700	0.007800	-0.122158
C45	C	0.608600	0.354700	0.719500	0.716448
C46	C	0.514300	0.282900	0.741200	-0.370649
C47	C	0.598300	0.270000	0.814300	0.065568
C48	C	0.473400	0.294100	0.861200	-0.138709
C49	C	0.542800	0.285700	0.926700	-0.068277
C50	C	0.743100	0.255100	0.947800	-0.068277
C51	C	0.871200	0.230700	0.901500	-0.138709
C52	C	0.802900	0.237800	0.833800	0.065568
C53	C	0.946800	0.209900	0.784900	-0.370649
C54	C	0.879400	0.132900	0.756500	0.716448
C55	C	0.199300	0.506300	0.813300	0.173382
C56	C	0.335600	0.507800	0.872000	-0.198774
C57	C	0.273400	0.477600	0.928000	0.128530
C58	C	0.069300	0.444900	0.921100	-0.198774
C59	C	0.937600	0.445200	0.861200	0.173382
C60	C	0.408800	0.479700	0.992400	-0.122158
C61	C	0.115500	0.439300	0.634100	0.173382
C62	C	0.258100	0.445400	0.589200	-0.198774
C63	C	0.275500	0.513000	0.555400	0.128530
C64	C	0.141600	0.570800	0.569400	-0.198774
C65	C	0.003400	0.560700	0.615100	0.173382
C66	C	0.427600	0.524300	0.507800	-0.122158
C67	C	0.891400	0.854700	0.780500	0.716448
C68	C	0.985700	0.782900	0.758800	-0.370649
C69	C	0.901700	0.770000	0.685700	0.065568
C70	C	0.026600	0.794100	0.638800	-0.138709
C71	C	0.957200	0.785700	0.573300	-0.068277
C72	C	0.756900	0.755100	0.552200	-0.068277
C73	C	0.628800	0.730700	0.598500	-0.138709
C74	C	0.697100	0.737800	0.666200	0.065568
C75	C	0.553200	0.709900	0.715100	-0.370649
C76	C	0.620600	0.632900	0.743500	0.716448
C77	C	0.300700	0.006300	0.686700	0.173382
C78	C	0.164400	0.007800	0.628000	-0.198774
C79	C	0.226600	0.977600	0.572000	0.128530
C80	C	0.430700	0.944900	0.578900	-0.198774
C81	C	0.562400	0.945200	0.638800	0.173382
C82	C	0.091200	0.979700	0.507600	-0.122158
C83	C	0.384500	0.939300	0.865900	0.173382
C84	C	0.241900	0.945400	0.910800	-0.198774
C85	C	0.224500	0.013000	0.944600	0.128530
C86	C	0.358400	0.070800	0.930600	-0.198774
C87	C	0.496600	0.060700	0.884900	0.173382
C88	C	0.072400	0.024300	0.992200	-0.122158
N1	N	0.002200	0.523300	0.194000	-0.341134
N2	N	0.012750	0.504100	0.351850	-0.341134
N3	N	0.497800	0.023300	0.306000	-0.341134
N4	N	0.487250	0.004100	0.148150	-0.341134
N5	N	0.997800	0.476700	0.806000	-0.341134
N6	N	0.987250	0.495900	0.648150	-0.341134
N7	N	0.502200	0.976700	0.694000	-0.341134
N8	N	0.512750	0.995900	0.851850	-0.341134
O1	O	0.256900	0.646300	0.319000	-0.628313
O2	O	0.440960	0.584500	0.257160	-0.623413
O3	O	0.134250	0.879900	0.302850	-0.628313
O4	O	0.152410	0.915940	0.200910	-0.623413
O5	O	0.243100	0.146300	0.181000	-0.628313
O6	O	0.059040	0.084500	0.242840	-0.623413
O7	O	0.365750	0.379900	0.197150	-0.628313
O8	O	0.347590	0.415940	0.299090	-0.623413
O9	O	0.743100	0.353700	0.681000	-0.628313
O10	O	0.559040	0.415500	0.742840	-0.623413
O11	O	0.865750	0.120100	0.697150	-0.628313
O12	O	0.847590	0.084060	0.799090	-0.623413
O13	O	0.756900	0.853700	0.819000	-0.628313
O14	O	0.940960	0.915500	0.757160	-0.623413
O15	O	0.634250	0.620100	0.802850	-0.628313
O16	O	0.652410	0.584060	0.700910	-0.623413
