data_DAJHOM_manual_PM
_symmetry_space_group_name_H-M	'P1'
_cell_length_a	13.171700
_cell_length_b	13.190100
_cell_length_c	16.234700
_cell_angle_alpha	97.292998
_cell_angle_beta	94.437002
_cell_angle_gamma	90.523000
_symmetry_Int_Tables_number 1

loop_
_symmetry_equiv_pos_as_xyz
'x,y,z'

loop_
_atom_site_label
_atom_site_type_symbol
_atom_site_fract_x
_atom_site_fract_y
_atom_site_fract_z
_atom_site_charge
Co1	Co	0.997730	0.005080	0.585910	0.945046
Co2	Co	0.002270	0.994920	0.414090	0.945046
Co3	Co	0.674950	0.771250	0.888170	0.945046
Co4	Co	0.679400	0.761540	0.717730	0.945046
Co5	Co	0.325050	0.228750	0.111830	0.945046
Co6	Co	0.320600	0.238460	0.282270	0.945046
H1	H	0.173900	0.019380	0.721770	0.079877
H2	H	0.192610	0.025940	0.878560	0.125952
H3	H	0.860020	0.014290	0.874210	0.125952
H4	H	0.851710	0.009860	0.718870	0.079877
H5	H	0.113730	0.032310	0.014740	0.103630
H6	H	0.327840	0.018070	0.389270	0.105125
H7	H	0.497480	0.033400	0.330740	0.103206
H8	H	0.315430	0.967100	0.650290	0.098168
H9	H	0.949390	0.678280	0.600450	0.105125
H10	H	0.915050	0.514690	0.656300	0.103206
H11	H	0.070330	0.672630	0.355730	0.098168
H12	H	0.826100	0.980620	0.278230	0.079877
H13	H	0.807390	0.974060	0.121440	0.125952
H14	H	0.139980	0.985710	0.125790	0.125952
H15	H	0.148290	0.990140	0.281130	0.079877
H16	H	0.886270	0.967690	0.985260	0.103630
H17	H	0.672160	0.981930	0.610730	0.105125
H18	H	0.502520	0.966600	0.669260	0.103206
H19	H	0.685400	0.032830	0.350180	0.098168
H20	H	0.050610	0.321720	0.399550	0.105125
H21	H	0.084950	0.485310	0.343700	0.103206
H22	H	0.929670	0.327370	0.644270	0.098168
H23	H	0.348810	0.764720	0.918030	0.105125
H24	H	0.179840	0.750540	0.976200	0.103206
H25	H	0.989650	0.750380	0.954720	0.098168
H26	H	0.004740	0.774710	0.690360	0.105125
H27	H	0.174160	0.778660	0.630940	0.103206
H28	H	0.362140	0.773960	0.649610	0.098168
H29	H	0.700880	0.085440	0.697420	0.105125
H30	H	0.720520	0.247410	0.635160	0.103206
H31	H	0.716930	0.438150	0.651330	0.098168
H32	H	0.644650	0.447290	0.910770	0.105125
H33	H	0.629760	0.285890	0.972820	0.103206
H34	H	0.637850	0.098680	0.960200	0.098168
H35	H	0.839030	0.719360	0.016010	0.079877
H36	H	0.857640	0.714640	0.171150	0.125952
H37	H	0.792390	0.762500	0.312890	0.103630
H38	H	0.556120	0.758850	0.297640	0.103630
H39	H	0.814690	0.767520	0.429180	0.125952
H40	H	0.823310	0.772530	0.585970	0.079877
H41	H	0.502060	0.736170	0.580010	0.079877
H42	H	0.651190	0.235280	0.081970	0.105125
H43	H	0.820160	0.249460	0.023800	0.103206
H44	H	0.010350	0.249620	0.045280	0.098168
H45	H	0.995260	0.225290	0.309640	0.105125
H46	H	0.825840	0.221340	0.369060	0.103206
H47	H	0.636760	0.226080	0.349760	0.098168
H48	H	0.299120	0.914560	0.302580	0.105125
H49	H	0.279480	0.752590	0.364840	0.103206
H50	H	0.283070	0.561850	0.348670	0.098168
H51	H	0.355350	0.552710	0.089230	0.105125
H52	H	0.370240	0.714110	0.027180	0.103206
H53	H	0.361990	0.902500	0.040390	0.098168
H54	H	0.160970	0.280640	0.983990	0.079877
H55	H	0.142360	0.285360	0.828850	0.125952
H56	H	0.207610	0.237500	0.687110	0.103630
H57	H	0.443880	0.241150	0.702360	0.103630
H58	H	0.185310	0.232480	0.570820	0.125952
H59	H	0.176690	0.227470	0.414030	0.079877
H60	H	0.497940	0.263830	0.419990	0.079877
H61	H	0.551570	0.831320	0.185350	0.125952
H62	H	0.542840	0.836130	0.029040	0.079877
H63	H	0.482920	0.734010	0.424460	0.125952
H64	H	0.448430	0.168680	0.814650	0.125952
H65	H	0.457160	0.163870	0.970960	0.079877
H66	H	0.517080	0.265990	0.575540	0.125952
C1	C	0.103300	0.018300	0.758100	0.177494
C2	C	0.113600	0.020800	0.844100	-0.199706
C3	C	0.027100	0.017000	0.887800	0.124027
C4	C	0.933600	0.014700	0.841600	-0.199706
C5	C	0.928800	0.012900	0.756300	0.177494
C6	C	0.037400	0.012800	0.977800	-0.123541
C7	C	0.197600	0.996800	0.507700	0.668153
C8	C	0.311100	0.992500	0.517500	-0.119471
C9	C	0.367600	0.006500	0.452200	-0.083776
C10	C	0.474800	0.007000	0.460800	0.033140
C11	C	0.535500	0.021500	0.394200	-0.148444
C12	C	0.361600	0.978500	0.595500	-0.035111
C13	C	0.003000	0.800600	0.487000	0.668153
C14	C	0.009500	0.687100	0.479600	-0.119471
C15	C	0.978400	0.634600	0.542000	-0.083776
C16	C	0.981500	0.527700	0.535500	0.033140
C17	C	0.947700	0.472100	0.599000	-0.148444
C18	C	0.045700	0.631200	0.408600	-0.035111
C19	C	0.896700	0.981700	0.241900	0.177494
C20	C	0.886400	0.979200	0.155900	-0.199706
C21	C	0.972900	0.983000	0.112200	0.124027
C22	C	0.066400	0.985300	0.158400	-0.199706
C23	C	0.071200	0.987100	0.243700	0.177494
C24	C	0.962600	0.987200	0.022200	-0.123541
C25	C	0.802400	0.003200	0.492300	0.668153
C26	C	0.688900	0.007500	0.482500	-0.119471
C27	C	0.632400	0.993500	0.547800	-0.083776
C28	C	0.525200	0.993000	0.539200	0.033140
C29	C	0.464500	0.978500	0.605800	-0.148444
C30	C	0.638400	0.021500	0.404500	-0.035111
C31	C	0.997000	0.199400	0.513000	0.668153
C32	C	0.990500	0.312900	0.520400	-0.119471
C33	C	0.021600	0.365400	0.458000	-0.083776
C34	C	0.018500	0.472300	0.464500	0.033140
C35	C	0.052300	0.527900	0.401000	-0.148444
C36	C	0.954300	0.368800	0.591400	-0.035111
C37	C	0.366400	0.767400	0.785300	-0.119471
C38	C	0.309200	0.765100	0.853100	-0.083776
C39	C	0.202400	0.763200	0.844100	0.033140
C40	C	0.142000	0.756100	0.911400	-0.148444
C41	C	0.037500	0.755800	0.899800	-0.035111
C42	C	0.988700	0.762100	0.820900	-0.119471
C43	C	0.044700	0.768400	0.754300	-0.083776
C44	C	0.152800	0.767200	0.763600	0.033140
C45	C	0.212600	0.772900	0.695500	-0.148444
C46	C	0.316100	0.771600	0.706000	-0.035111
C47	C	0.479900	0.765600	0.796300	0.668153
C48	C	0.873500	0.765400	0.809600	0.668153
C49	C	0.668300	0.080300	0.826500	-0.119471
C50	C	0.685600	0.130700	0.759700	-0.083776
C51	C	0.685000	0.238400	0.766000	0.033140
C52	C	0.703700	0.291800	0.697400	-0.148444
C53	C	0.701500	0.395600	0.706100	-0.035111
C54	C	0.680300	0.453600	0.782300	-0.119471
C55	C	0.661900	0.402500	0.848800	-0.083776
C56	C	0.663800	0.295000	0.842400	0.033140
C57	C	0.646700	0.241800	0.910500	-0.148444
C58	C	0.650000	0.138700	0.903400	-0.035111
C59	C	0.674000	0.965700	0.819000	0.668153
C60	C	0.679000	0.566900	0.790100	0.668153
C61	C	0.773300	0.743600	0.055400	0.177494
C62	C	0.783300	0.740500	0.140300	-0.199706
C63	C	0.703900	0.768500	0.187900	0.124027
C64	C	0.618300	0.803900	0.148200	-0.199706
C65	C	0.613500	0.806100	0.062400	0.177494
C66	C	0.713700	0.763200	0.278400	-0.123541
C67	C	0.638100	0.759000	0.325900	-0.123541
C68	C	0.648500	0.754200	0.416800	0.124027
C69	C	0.741900	0.762100	0.462200	-0.199706
C70	C	0.746600	0.763400	0.547900	0.177494
C71	C	0.572200	0.744200	0.544200	0.177494
C72	C	0.561700	0.743400	0.459200	-0.199706
C73	C	0.633600	0.232600	0.214700	-0.119471
C74	C	0.690800	0.234900	0.146900	-0.083776
C75	C	0.797600	0.236800	0.155900	0.033140
C76	C	0.858000	0.243900	0.088600	-0.148444
C77	C	0.962500	0.244200	0.100200	-0.035111
C78	C	0.011300	0.237900	0.179100	-0.119471
C79	C	0.955300	0.231600	0.245700	-0.083776
C80	C	0.847200	0.232800	0.236400	0.033140
C81	C	0.787400	0.227100	0.304500	-0.148444
C82	C	0.683900	0.228400	0.294000	-0.035111
C83	C	0.520100	0.234400	0.203700	0.668153
C84	C	0.126500	0.234600	0.190400	0.668153
C85	C	0.331700	0.919700	0.173500	-0.119471
C86	C	0.314400	0.869300	0.240300	-0.083776
C87	C	0.315000	0.761600	0.234000	0.033140
C88	C	0.296300	0.708200	0.302600	-0.148444
C89	C	0.298500	0.604400	0.293900	-0.035111
C90	C	0.319700	0.546400	0.217700	-0.119471
C91	C	0.338100	0.597500	0.151200	-0.083776
C92	C	0.336200	0.705000	0.157600	0.033140
C93	C	0.353300	0.758200	0.089500	-0.148444
C94	C	0.350000	0.861300	0.096600	-0.035111
C95	C	0.326000	0.034300	0.181000	0.668153
C96	C	0.321000	0.433100	0.209900	0.668153
C97	C	0.226700	0.256400	0.944600	0.177494
C98	C	0.216700	0.259500	0.859700	-0.199706
C99	C	0.296100	0.231500	0.812100	0.124027
C100	C	0.381700	0.196100	0.851800	-0.199706
C101	C	0.386500	0.193900	0.937600	0.177494
C102	C	0.286300	0.236800	0.721600	-0.123541
C103	C	0.361900	0.241000	0.674100	-0.123541
C104	C	0.351500	0.245800	0.583200	0.124027
C105	C	0.258100	0.237900	0.537800	-0.199706
C106	C	0.253400	0.236600	0.452100	0.177494
C107	C	0.427800	0.255800	0.455800	0.177494
C108	C	0.438300	0.256600	0.540800	-0.199706
N1	N	0.012800	0.014600	0.714200	-0.344806
N2	N	0.987200	0.985400	0.285800	-0.344806
N3	N	0.690100	0.773700	0.016000	-0.344806
N4	N	0.663100	0.754200	0.589400	-0.344806
N5	N	0.309900	0.226300	0.984000	-0.344806
N6	N	0.336900	0.245800	0.410600	-0.344806
O1	O	0.150700	0.002700	0.572300	-0.578392
O2	O	0.844200	0.005300	0.565200	-0.578392
O3	O	0.995700	0.848800	0.558200	-0.578392
O4	O	0.997400	0.158700	0.579000	-0.578392
O5	O	0.849300	0.997300	0.427700	-0.578392
O6	O	0.155800	0.994700	0.434800	-0.578392
O7	O	0.004300	0.151200	0.441800	-0.578392
O8	O	0.002600	0.841300	0.421000	-0.578392
O9	O	0.521400	0.767500	0.868500	-0.578392
O10	O	0.527300	0.762300	0.731300	-0.578392
O11	O	0.832900	0.764000	0.737800	-0.578392
O12	O	0.827000	0.771200	0.875100	-0.578392
O13	O	0.678300	0.917900	0.747100	-0.578392
O14	O	0.673200	0.925700	0.885100	-0.578392
O15	O	0.674300	0.615400	0.861800	-0.578392
O16	O	0.681100	0.608300	0.724200	-0.578392
O17	O	0.478600	0.232500	0.131500	-0.578392
O18	O	0.472700	0.237700	0.268700	-0.578392
O19	O	0.167100	0.236000	0.262200	-0.578392
O20	O	0.173000	0.228800	0.124900	-0.578392
O21	O	0.321700	0.082100	0.252900	-0.578392
O22	O	0.326800	0.074300	0.114900	-0.578392
O23	O	0.325700	0.384600	0.138200	-0.578392
O24	O	0.318900	0.391700	0.275800	-0.578392
