data_DARFIN_clean_PM
_symmetry_space_group_name_H-M	'P1'
_cell_length_a	10.455300
_cell_length_b	14.424800
_cell_length_c	23.432300
_cell_angle_alpha	107.500999
_cell_angle_beta	90.000000
_cell_angle_gamma	90.000000
_symmetry_Int_Tables_number 1

loop_
_symmetry_equiv_pos_as_xyz
'x,y,z'

loop_
_atom_site_label
_atom_site_type_symbol
_atom_site_fract_x
_atom_site_fract_y
_atom_site_fract_z
_atom_site_charge
Er1	Er	0.924500	0.848550	0.773650	1.320191
Er2	Er	0.924500	0.151450	0.726350	1.320191
Er3	Er	0.075500	0.151450	0.226350	1.320191
Er4	Er	0.075500	0.848550	0.273650	1.320191
P1	P	0.872300	0.771540	0.378350	1.034003
P2	P	0.872300	0.228460	0.121650	1.034003
P3	P	0.127700	0.228460	0.621650	1.034003
P4	P	0.127700	0.771540	0.878350	1.034003
H1	H	0.902500	0.677900	0.470800	0.097915
H2	H	0.901700	0.732200	0.573600	0.113981
H3	H	0.870900	0.006600	0.570900	0.113981
H4	H	0.864800	0.953900	0.468800	0.097915
H5	H	0.626300	0.769100	0.435800	0.097915
H6	H	0.416100	0.797800	0.410800	0.113981
H7	H	0.539000	0.826400	0.254500	0.113981
H8	H	0.746800	0.803000	0.279500	0.097915
H9	H	0.106900	0.664200	0.356200	0.097915
H10	H	0.159800	0.499100	0.325500	0.113981
H11	H	0.788100	0.428400	0.310500	0.113981
H12	H	0.731800	0.588500	0.341500	0.097915
H13	H	0.902500	0.322100	0.029200	0.097915
H14	H	0.901700	0.267800	0.926400	0.113981
H15	H	0.870900	0.993400	0.929100	0.113981
H16	H	0.864800	0.046100	0.031200	0.097915
H17	H	0.626300	0.230900	0.064200	0.097915
H18	H	0.416100	0.202200	0.089200	0.113981
H19	H	0.539000	0.173600	0.245500	0.113981
H20	H	0.746800	0.197000	0.220500	0.097915
H21	H	0.106900	0.335800	0.143800	0.097915
H22	H	0.159800	0.500900	0.174500	0.113981
H23	H	0.788100	0.571600	0.189500	0.113981
H24	H	0.731800	0.411500	0.158500	0.097915
H25	H	0.097500	0.322100	0.529200	0.097915
H26	H	0.098300	0.267800	0.426400	0.113981
H27	H	0.129100	0.993400	0.429100	0.113981
H28	H	0.135200	0.046100	0.531200	0.097915
H29	H	0.373700	0.230900	0.564200	0.097915
H30	H	0.583900	0.202200	0.589200	0.113981
H31	H	0.461000	0.173600	0.745500	0.113981
H32	H	0.253200	0.197000	0.720500	0.097915
H33	H	0.893100	0.335800	0.643800	0.097915
H34	H	0.840200	0.500900	0.674500	0.113981
H35	H	0.211900	0.571600	0.689500	0.113981
H36	H	0.268200	0.411500	0.658500	0.097915
H37	H	0.097500	0.677900	0.970800	0.097915
H38	H	0.098300	0.732200	0.073600	0.113981
H39	H	0.129100	0.006600	0.070900	0.113981
H40	H	0.135200	0.953900	0.968800	0.097915
H41	H	0.373700	0.769100	0.935800	0.097915
H42	H	0.583900	0.797800	0.910800	0.113981
H43	H	0.461000	0.826400	0.754500	0.113981
H44	H	0.253200	0.803000	0.779500	0.097915
H45	H	0.893100	0.664200	0.856200	0.097915
H46	H	0.840200	0.499100	0.825500	0.113981
H47	H	0.211900	0.428400	0.810500	0.113981
H48	H	0.268200	0.588500	0.841500	0.097915
H49	H	0.242100	0.000000	0.750000	0.033310
H50	H	0.757900	0.000000	0.250000	0.033310
C1	C	0.879700	0.809900	0.458200	-0.278283
C2	C	0.893700	0.743900	0.490700	-0.006710
C3	C	0.894300	0.776800	0.552200	-0.056534
C4	C	0.884300	0.873900	0.582600	-0.079052
C5	C	0.875100	0.940500	0.550800	-0.056534
C6	C	0.872100	0.908800	0.489900	-0.006710
C7	C	0.882600	0.908700	0.649900	0.659459
C8	C	0.709500	0.784300	0.359100	-0.278283
C9	C	0.608600	0.781100	0.399800	-0.006710
C10	C	0.482300	0.796500	0.384100	-0.056534
C11	C	0.455900	0.809900	0.329300	-0.079052
C12	C	0.556400	0.814300	0.290600	-0.056534
C13	C	0.681000	0.800800	0.305800	-0.006710
C14	C	0.321400	0.826300	0.311900	0.659459
C15	C	0.910100	0.643700	0.353300	-0.278283
C16	C	0.043300	0.617000	0.347300	-0.006710
C17	C	0.074300	0.517800	0.327800	-0.056534
C18	C	0.983700	0.450000	0.312600	-0.079052
C19	C	0.850900	0.476300	0.319300	-0.056534
C20	C	0.817800	0.571400	0.338400	-0.006710
C21	C	0.017600	0.345600	0.286600	0.659459
C22	C	0.879700	0.190100	0.041800	-0.278283
C23	C	0.893700	0.256100	0.009300	-0.006710
C24	C	0.894300	0.223200	0.947800	-0.056534
C25	C	0.884300	0.126100	0.917400	-0.079052
C26	C	0.875100	0.059500	0.949200	-0.056534
C27	C	0.872100	0.091200	0.010100	-0.006710
C28	C	0.882600	0.091300	0.850100	0.659459
C29	C	0.709500	0.215700	0.140900	-0.278283
C30	C	0.608600	0.218900	0.100200	-0.006710
C31	C	0.482300	0.203500	0.115900	-0.056534
C32	C	0.455900	0.190100	0.170700	-0.079052
C33	C	0.556400	0.185700	0.209400	-0.056534
C34	C	0.681000	0.199200	0.194200	-0.006710
C35	C	0.321400	0.173700	0.188100	0.659459
C36	C	0.910100	0.356300	0.146700	-0.278283
C37	C	0.043300	0.383000	0.152700	-0.006710
C38	C	0.074300	0.482200	0.172200	-0.056534
C39	C	0.983700	0.550000	0.187400	-0.079052
C40	C	0.850900	0.523700	0.180700	-0.056534
C41	C	0.817800	0.428600	0.161600	-0.006710
C42	C	0.017600	0.654400	0.213400	0.659459
C43	C	0.120300	0.190100	0.541800	-0.278283
C44	C	0.106300	0.256100	0.509300	-0.006710
C45	C	0.105700	0.223200	0.447800	-0.056534
C46	C	0.115700	0.126100	0.417400	-0.079052
C47	C	0.124900	0.059500	0.449200	-0.056534
C48	C	0.127900	0.091200	0.510100	-0.006710
C49	C	0.117400	0.091300	0.350100	0.659459
C50	C	0.290500	0.215700	0.640900	-0.278283
C51	C	0.391400	0.218900	0.600200	-0.006710
C52	C	0.517700	0.203500	0.615900	-0.056534
C53	C	0.544100	0.190100	0.670700	-0.079052
C54	C	0.443600	0.185700	0.709400	-0.056534
C55	C	0.319000	0.199200	0.694200	-0.006710
C56	C	0.678600	0.173700	0.688100	0.659459
C57	C	0.089900	0.356300	0.646700	-0.278283
C58	C	0.956700	0.383000	0.652700	-0.006710
C59	C	0.925700	0.482200	0.672200	-0.056534
C60	C	0.016300	0.550000	0.687400	-0.079052
C61	C	0.149100	0.523700	0.680700	-0.056534
C62	C	0.182200	0.428600	0.661600	-0.006710
C63	C	0.982400	0.654400	0.713400	0.659459
C64	C	0.120300	0.809900	0.958200	-0.278283
C65	C	0.106300	0.743900	0.990700	-0.006710
C66	C	0.105700	0.776800	0.052200	-0.056534
C67	C	0.115700	0.873900	0.082600	-0.079052
C68	C	0.124900	0.940500	0.050800	-0.056534
C69	C	0.127900	0.908800	0.989900	-0.006710
C70	C	0.117400	0.908700	0.149900	0.659459
C71	C	0.290500	0.784300	0.859100	-0.278283
C72	C	0.391400	0.781100	0.899800	-0.006710
C73	C	0.517700	0.796500	0.884100	-0.056534
C74	C	0.544100	0.809900	0.829300	-0.079052
C75	C	0.443600	0.814300	0.790600	-0.056534
C76	C	0.319000	0.800800	0.805800	-0.006710
C77	C	0.678600	0.826300	0.811900	0.659459
C78	C	0.089900	0.643700	0.853300	-0.278283
C79	C	0.956700	0.617000	0.847300	-0.006710
C80	C	0.925700	0.517800	0.827800	-0.056534
C81	C	0.016300	0.450000	0.812600	-0.079052
C82	C	0.149100	0.476300	0.819300	-0.056534
C83	C	0.182200	0.571400	0.838400	-0.006710
C84	C	0.982400	0.345600	0.786600	0.659459
C85	C	0.153100	0.000000	0.750000	0.645819
C86	C	0.846900	0.000000	0.250000	0.645819
O1	O	0.889800	0.845200	0.676400	-0.541763
O2	O	0.872100	0.998900	0.675300	-0.541763
O3	O	0.229700	0.817200	0.344700	-0.541763
O4	O	0.302500	0.849700	0.264500	-0.541763
O5	O	0.131300	0.321800	0.268700	-0.541763
O6	O	0.930300	0.280500	0.278200	-0.541763
O7	O	0.957600	0.828500	0.351800	-0.706417
O8	O	0.105400	0.929200	0.758900	-0.535049
O9	O	0.889800	0.154800	0.823600	-0.541763
O10	O	0.872100	0.001100	0.824700	-0.541763
O11	O	0.229700	0.182800	0.155300	-0.541763
O12	O	0.302500	0.150300	0.235500	-0.541763
O13	O	0.131300	0.678200	0.231300	-0.541763
O14	O	0.930300	0.719500	0.221800	-0.541763
O15	O	0.957600	0.171500	0.148200	-0.706417
O16	O	0.105400	0.070800	0.741100	-0.535049
O17	O	0.110200	0.154800	0.323600	-0.541763
O18	O	0.127900	0.001100	0.324700	-0.541763
O19	O	0.770300	0.182800	0.655300	-0.541763
O20	O	0.697500	0.150300	0.735500	-0.541763
O21	O	0.868700	0.678200	0.731300	-0.541763
O22	O	0.069700	0.719500	0.721800	-0.541763
O23	O	0.042400	0.171500	0.648200	-0.706417
O24	O	0.894600	0.070800	0.241100	-0.535049
O25	O	0.110200	0.845200	0.176400	-0.541763
O26	O	0.127900	0.998900	0.175300	-0.541763
O27	O	0.770300	0.817200	0.844700	-0.541763
O28	O	0.697500	0.849700	0.764500	-0.541763
O29	O	0.868700	0.321800	0.768700	-0.541763
O30	O	0.069700	0.280500	0.778200	-0.541763
O31	O	0.042400	0.828500	0.851800	-0.706417
O32	O	0.894600	0.929200	0.258900	-0.535049
