data_DATHAJ_clean_PM
_symmetry_space_group_name_H-M	'P1'
_cell_length_a	12.609600
_cell_length_b	13.007900
_cell_length_c	22.501400
_cell_angle_alpha	90.000000
_cell_angle_beta	90.000000
_cell_angle_gamma	90.000000
_symmetry_Int_Tables_number 1

loop_
_symmetry_equiv_pos_as_xyz
'x,y,z'

loop_
_atom_site_label
_atom_site_type_symbol
_atom_site_fract_x
_atom_site_fract_y
_atom_site_fract_z
_atom_site_charge
Nd1	Nd	0.011420	0.839030	0.507320	2.249992
Nd2	Nd	0.511420	0.660970	0.492680	2.249992
Nd3	Nd	0.988580	0.160970	0.007320	2.249992
Nd4	Nd	0.488580	0.339030	0.992680	2.249992
Nd5	Nd	0.988580	0.160970	0.492680	2.249992
Nd6	Nd	0.488580	0.339030	0.507320	2.249992
Nd7	Nd	0.011420	0.839030	0.992680	2.249992
Nd8	Nd	0.511420	0.660970	0.007320	2.249992
Nd9	Nd	0.836550	0.708160	0.250000	2.255198
Nd10	Nd	0.336550	0.791840	0.750000	2.255198
Nd11	Nd	0.163450	0.291840	0.750000	2.255198
Nd12	Nd	0.663450	0.208160	0.250000	2.255198
H1	H	0.153700	0.477400	0.610000	0.289210
H2	H	0.991000	0.559000	0.660300	0.115636
H3	H	0.946500	0.659400	0.630600	0.115636
H4	H	0.930700	0.464400	0.574300	0.068719
H5	H	0.875600	0.565300	0.551800	0.068719
H6	H	0.758200	0.562900	0.629700	0.110966
H7	H	0.757000	0.452200	0.602300	0.110966
H8	H	0.820300	0.473600	0.660900	0.110966
H9	H	0.653700	0.022600	0.390000	0.289210
H10	H	0.491000	0.941000	0.339700	0.115636
H11	H	0.446500	0.840600	0.369400	0.115636
H12	H	0.430700	0.035600	0.425700	0.068719
H13	H	0.375600	0.934700	0.448200	0.068719
H14	H	0.258200	0.937100	0.370300	0.110966
H15	H	0.257000	0.047800	0.397700	0.110966
H16	H	0.320300	0.026400	0.339100	0.110966
H17	H	0.846300	0.522600	0.110000	0.289210
H18	H	0.009000	0.441000	0.160300	0.115636
H19	H	0.053500	0.340600	0.130600	0.115636
H20	H	0.069300	0.535600	0.074300	0.068719
H21	H	0.124400	0.434700	0.051800	0.068719
H22	H	0.241800	0.437100	0.129700	0.110966
H23	H	0.243000	0.547800	0.102300	0.110966
H24	H	0.179700	0.526400	0.160900	0.110966
H25	H	0.346300	0.977400	0.890000	0.289210
H26	H	0.509000	0.059000	0.839700	0.115636
H27	H	0.553500	0.159400	0.869400	0.115636
H28	H	0.569300	0.964400	0.925700	0.068719
H29	H	0.624400	0.065300	0.948200	0.068719
H30	H	0.741800	0.062900	0.870300	0.110966
H31	H	0.743000	0.952200	0.897700	0.110966
H32	H	0.679700	0.973600	0.839100	0.110966
H33	H	0.846300	0.522600	0.390000	0.289210
H34	H	0.009000	0.441000	0.339700	0.115636
H35	H	0.053500	0.340600	0.369400	0.115636
H36	H	0.069300	0.535600	0.425700	0.068719
H37	H	0.124400	0.434700	0.448200	0.068719
H38	H	0.241800	0.437100	0.370300	0.110966
H39	H	0.243000	0.547800	0.397700	0.110966
H40	H	0.179700	0.526400	0.339100	0.110966
H41	H	0.346300	0.977400	0.610000	0.289210
H42	H	0.509000	0.059000	0.660300	0.115636
H43	H	0.553500	0.159400	0.630600	0.115636
H44	H	0.569300	0.964400	0.574300	0.068719
H45	H	0.624400	0.065300	0.551800	0.068719
H46	H	0.741800	0.062900	0.629700	0.110966
H47	H	0.743000	0.952200	0.602300	0.110966
H48	H	0.679700	0.973600	0.660900	0.110966
H49	H	0.153700	0.477400	0.890000	0.289210
H50	H	0.991000	0.559000	0.839700	0.115636
H51	H	0.946500	0.659400	0.869400	0.115636
H52	H	0.930700	0.464400	0.925700	0.068719
H53	H	0.875600	0.565300	0.948200	0.068719
H54	H	0.758200	0.562900	0.870300	0.110966
H55	H	0.757000	0.452200	0.897700	0.110966
H56	H	0.820300	0.473600	0.839100	0.110966
H57	H	0.653700	0.022600	0.110000	0.289210
H58	H	0.491000	0.941000	0.160300	0.115636
H59	H	0.446500	0.840600	0.130600	0.115636
H60	H	0.430700	0.035600	0.074300	0.068719
H61	H	0.375600	0.934700	0.051800	0.068719
H62	H	0.258200	0.937100	0.129700	0.110966
H63	H	0.257000	0.047800	0.102300	0.110966
H64	H	0.320300	0.026400	0.160900	0.110966
H65	H	0.702500	0.474700	0.250000	0.017179
H66	H	0.202500	0.025300	0.750000	0.017179
H67	H	0.297500	0.525300	0.750000	0.017179
H68	H	0.797500	0.974700	0.250000	0.017179
C1	C	0.199000	0.653600	0.525990	0.062702
C2	C	0.231800	0.560400	0.548950	-0.058709
C3	C	0.077600	0.604200	0.588630	0.439187
C4	C	0.241300	0.720700	0.477420	0.711013
C5	C	0.318300	0.487300	0.537140	0.714524
C6	C	0.976600	0.592200	0.622560	-0.286748
C7	C	0.896800	0.527600	0.587100	-0.014091
C8	C	0.799100	0.501700	0.623300	-0.306748
C9	C	0.945200	0.829300	0.365650	0.559231
C10	C	0.926200	0.718800	0.389300	0.559231
C11	C	0.699000	0.846400	0.474010	0.062702
C12	C	0.731800	0.939600	0.451050	-0.058709
C13	C	0.577600	0.895800	0.411370	0.439187
C14	C	0.741300	0.779300	0.522580	0.711013
C15	C	0.818300	0.012700	0.462860	0.714524
C16	C	0.476600	0.907800	0.377440	-0.286748
C17	C	0.396800	0.972400	0.412900	-0.014091
C18	C	0.299100	0.998300	0.376700	-0.306748
C19	C	0.445200	0.670700	0.634350	0.559231
C20	C	0.426200	0.781200	0.610700	0.559231
C21	C	0.801000	0.346400	0.025990	0.062702
C22	C	0.768200	0.439600	0.048950	-0.058709
C23	C	0.922400	0.395800	0.088630	0.439187
C24	C	0.758700	0.279300	0.977420	0.711013
C25	C	0.681700	0.512700	0.037140	0.714524
C26	C	0.023400	0.407800	0.122560	-0.286748
C27	C	0.103200	0.472400	0.087100	-0.014091
C28	C	0.200900	0.498300	0.123300	-0.306748
C29	C	0.054800	0.170700	0.865650	0.559231
C30	C	0.073800	0.281200	0.889300	0.559231
C31	C	0.301000	0.153600	0.974010	0.062702
C32	C	0.268200	0.060400	0.951050	-0.058709
C33	C	0.422400	0.104200	0.911370	0.439187
C34	C	0.258700	0.220700	0.022580	0.711013
C35	C	0.181700	0.987300	0.962860	0.714524
C36	C	0.523400	0.092200	0.877440	-0.286748
C37	C	0.603200	0.027600	0.912900	-0.014091
C38	C	0.700900	0.001700	0.876700	-0.306748
C39	C	0.554800	0.329300	0.134350	0.559231
C40	C	0.573800	0.218800	0.110700	0.559231
C41	C	0.801000	0.346400	0.474010	0.062702
C42	C	0.768200	0.439600	0.451050	-0.058709
C43	C	0.922400	0.395800	0.411370	0.439187
C44	C	0.758700	0.279300	0.522580	0.711013
C45	C	0.681700	0.512700	0.462860	0.714524
C46	C	0.023400	0.407800	0.377440	-0.286748
C47	C	0.103200	0.472400	0.412900	-0.014091
C48	C	0.200900	0.498300	0.376700	-0.306748
C49	C	0.054800	0.170700	0.634350	0.559231
C50	C	0.073800	0.281200	0.610700	0.559231
C51	C	0.301000	0.153600	0.525990	0.062702
C52	C	0.268200	0.060400	0.548950	-0.058709
C53	C	0.422400	0.104200	0.588630	0.439187
C54	C	0.258700	0.220700	0.477420	0.711013
C55	C	0.181700	0.987300	0.537140	0.714524
C56	C	0.523400	0.092200	0.622560	-0.286748
C57	C	0.603200	0.027600	0.587100	-0.014091
C58	C	0.700900	0.001700	0.623300	-0.306748
C59	C	0.554800	0.329300	0.365650	0.559231
C60	C	0.573800	0.218800	0.389300	0.559231
C61	C	0.199000	0.653600	0.974010	0.062702
C62	C	0.231800	0.560400	0.951050	-0.058709
C63	C	0.077600	0.604200	0.911370	0.439187
C64	C	0.241300	0.720700	0.022580	0.711013
C65	C	0.318300	0.487300	0.962860	0.714524
C66	C	0.976600	0.592200	0.877440	-0.286748
C67	C	0.896800	0.527600	0.912900	-0.014091
C68	C	0.799100	0.501700	0.876700	-0.306748
C69	C	0.945200	0.829300	0.134350	0.559231
C70	C	0.926200	0.718800	0.110700	0.559231
C71	C	0.699000	0.846400	0.025990	0.062702
C72	C	0.731800	0.939600	0.048950	-0.058709
C73	C	0.577600	0.895800	0.088630	0.439187
C74	C	0.741300	0.779300	0.977420	0.711013
C75	C	0.818300	0.012700	0.037140	0.714524
C76	C	0.476600	0.907800	0.122560	-0.286748
C77	C	0.396800	0.972400	0.087100	-0.014091
C78	C	0.299100	0.998300	0.123300	-0.306748
C79	C	0.445200	0.670700	0.865650	0.559231
C80	C	0.426200	0.781200	0.889300	0.559231
C81	C	0.772600	0.452300	0.250000	0.805581
C82	C	0.272600	0.047700	0.750000	0.805581
C83	C	0.227400	0.547700	0.750000	0.805581
C84	C	0.727400	0.952300	0.250000	0.805581
N1	N	0.102500	0.679700	0.551050	-0.529702
N2	N	0.153600	0.532200	0.588690	-0.261676
N3	N	0.602500	0.820300	0.448950	-0.529702
N4	N	0.653600	0.967800	0.411310	-0.261676
N5	N	0.897500	0.320300	0.051050	-0.529702
N6	N	0.846400	0.467800	0.088690	-0.261676
N7	N	0.397500	0.179700	0.948950	-0.529702
N8	N	0.346400	0.032200	0.911310	-0.261676
N9	N	0.897500	0.320300	0.448950	-0.529702
N10	N	0.846400	0.467800	0.411310	-0.261676
N11	N	0.397500	0.179700	0.551050	-0.529702
N12	N	0.346400	0.032200	0.588690	-0.261676
N13	N	0.102500	0.679700	0.948950	-0.529702
N14	N	0.153600	0.532200	0.911310	-0.261676
N15	N	0.602500	0.820300	0.051050	-0.529702
N16	N	0.653600	0.967800	0.088690	-0.261676
O1	O	0.174950	0.782530	0.455240	-0.704032
O2	O	0.335070	0.711440	0.460370	-0.704032
O3	O	0.389980	0.508720	0.498840	-0.837210
O4	O	0.319090	0.403500	0.564510	-0.653101
O5	O	0.920900	0.846550	0.313120	-0.694061
O6	O	0.983950	0.892480	0.402290	-0.653155
O7	O	0.948100	0.701470	0.442160	-0.653155
O8	O	0.891300	0.654630	0.352310	-0.694061
O9	O	0.674950	0.717470	0.544760	-0.704032
O10	O	0.835070	0.788560	0.539630	-0.704032
O11	O	0.889980	0.991280	0.501160	-0.837210
O12	O	0.819090	0.096500	0.435490	-0.653101
O13	O	0.420900	0.653450	0.686880	-0.694061
O14	O	0.483950	0.607520	0.597710	-0.653155
O15	O	0.448100	0.798530	0.557840	-0.653155
O16	O	0.391300	0.845370	0.647690	-0.694061
O17	O	0.825050	0.217470	0.955240	-0.704032
O18	O	0.664930	0.288560	0.960370	-0.704032
O19	O	0.610020	0.491280	0.998840	-0.837210
O20	O	0.680910	0.596500	0.064510	-0.653101
O21	O	0.079100	0.153450	0.813120	-0.694061
O22	O	0.016050	0.107520	0.902290	-0.653155
O23	O	0.051900	0.298530	0.942160	-0.653155
O24	O	0.108700	0.345370	0.852310	-0.694061
O25	O	0.325050	0.282530	0.044760	-0.704032
O26	O	0.164930	0.211440	0.039630	-0.704032
O27	O	0.110020	0.008720	0.001160	-0.837210
O28	O	0.180910	0.903500	0.935490	-0.653101
O29	O	0.579100	0.346550	0.186880	-0.694061
O30	O	0.516050	0.392480	0.097710	-0.653155
O31	O	0.551900	0.201470	0.057840	-0.653155
O32	O	0.608700	0.154630	0.147690	-0.694061
O33	O	0.825050	0.217470	0.544760	-0.704032
O34	O	0.664930	0.288560	0.539630	-0.704032
O35	O	0.610020	0.491280	0.501160	-0.837210
O36	O	0.680910	0.596500	0.435490	-0.653101
O37	O	0.079100	0.153450	0.686880	-0.694061
O38	O	0.016050	0.107520	0.597710	-0.653155
O39	O	0.051900	0.298530	0.557840	-0.653155
O40	O	0.108700	0.345370	0.647690	-0.694061
O41	O	0.325050	0.282530	0.455240	-0.704032
O42	O	0.164930	0.211440	0.460370	-0.704032
O43	O	0.110020	0.008720	0.498840	-0.837210
O44	O	0.180910	0.903500	0.564510	-0.653101
O45	O	0.579100	0.346550	0.313120	-0.694061
O46	O	0.516050	0.392480	0.402290	-0.653155
O47	O	0.551900	0.201470	0.442160	-0.653155
O48	O	0.608700	0.154630	0.352310	-0.694061
O49	O	0.174950	0.782530	0.044760	-0.704032
O50	O	0.335070	0.711440	0.039630	-0.704032
O51	O	0.389980	0.508720	0.001160	-0.837210
O52	O	0.319090	0.403500	0.935490	-0.653101
O53	O	0.920900	0.846550	0.186880	-0.694061
O54	O	0.983950	0.892480	0.097710	-0.653155
O55	O	0.948100	0.701470	0.057840	-0.653155
O56	O	0.891300	0.654630	0.147690	-0.694061
O57	O	0.674950	0.717470	0.955240	-0.704032
O58	O	0.835070	0.788560	0.960370	-0.704032
O59	O	0.889980	0.991280	0.998840	-0.837210
O60	O	0.819090	0.096500	0.064510	-0.653101
O61	O	0.420900	0.653450	0.813120	-0.694061
O62	O	0.483950	0.607520	0.902290	-0.653155
O63	O	0.448100	0.798530	0.942160	-0.653155
O64	O	0.391300	0.845370	0.852310	-0.694061
O65	O	0.841400	0.519300	0.250000	-0.775198
O66	O	0.787200	0.357300	0.250000	-0.775198
O67	O	0.341400	0.980700	0.750000	-0.775198
O68	O	0.287200	0.142700	0.750000	-0.775198
O69	O	0.158600	0.480700	0.750000	-0.775198
O70	O	0.212800	0.642700	0.750000	-0.775198
O71	O	0.658600	0.019300	0.250000	-0.775198
O72	O	0.712800	0.857300	0.250000	-0.775198
