data_DENKOX_clean_PM
_symmetry_space_group_name_H-M	'P1'
_cell_length_a	10.225500
_cell_length_b	13.012000
_cell_length_c	13.550800
_cell_angle_alpha	90.000000
_cell_angle_beta	90.748999
_cell_angle_gamma	90.000000
_symmetry_Int_Tables_number 1

loop_
_symmetry_equiv_pos_as_xyz
'x,y,z'

loop_
_atom_site_label
_atom_site_type_symbol
_atom_site_fract_x
_atom_site_fract_y
_atom_site_fract_z
_atom_site_charge
Co1	Co	0.855950	0.482240	0.236280	0.983076
Co2	Co	0.134790	0.489670	0.265190	0.983589
Co3	Co	0.144050	0.982240	0.763720	0.983076
Co4	Co	0.865210	0.989670	0.734810	0.983589
H1	H	0.137100	0.579700	0.568600	0.078959
H2	H	0.078800	0.490000	0.632400	0.078959
H3	H	0.112200	0.681000	0.696000	0.069542
H4	H	0.033200	0.596000	0.752600	0.069542
H5	H	0.844100	0.654200	0.703100	0.104044
H6	H	0.873000	0.412600	0.576400	0.106667
H7	H	0.829600	0.495100	0.653700	0.106667
H8	H	0.758000	0.488200	0.550900	0.106667
H9	H	0.937000	0.814700	0.504100	0.107139
H10	H	0.059300	0.743100	0.517300	0.107139
H11	H	0.964700	0.728400	0.426400	0.107139
H12	H	0.723700	0.757700	0.535100	0.107139
H13	H	0.734400	0.669000	0.457300	0.107139
H14	H	0.693000	0.644100	0.565700	0.107139
H15	H	0.059700	0.852700	0.246900	0.078959
H16	H	0.115300	0.771600	0.172200	0.078959
H17	H	0.149300	0.898200	0.065800	0.069542
H18	H	0.080700	0.977500	0.136400	0.069542
H19	H	0.887900	0.958200	0.066100	0.100457
H20	H	0.832300	0.829600	0.294900	0.106667
H21	H	0.822400	0.914000	0.212600	0.106667
H22	H	0.727700	0.819300	0.209900	0.106667
H23	H	0.736000	0.810000	0.948200	0.107139
H24	H	0.704500	0.733900	0.034400	0.107139
H25	H	0.696500	0.852900	0.051700	0.107139
H26	H	0.943500	0.735200	0.921600	0.107139
H27	H	0.052500	0.727000	0.003600	0.107139
H28	H	0.930000	0.654700	0.007000	0.107139
H29	H	0.591800	0.437500	0.360400	0.102383
H30	H	0.432700	0.306400	0.320300	0.126618
H31	H	0.722400	0.290000	0.132700	0.092890
H32	H	0.406700	0.201100	0.141600	0.107347
H33	H	0.541900	0.170500	0.097600	0.107347
H34	H	0.620600	0.118700	0.323300	0.099137
H35	H	0.612600	0.961900	0.402500	0.099137
H36	H	0.358500	0.859900	0.202300	0.099137
H37	H	0.357800	0.013600	0.127100	0.099137
H38	H	0.416000	0.810600	0.427800	0.107347
H39	H	0.559700	0.782900	0.399300	0.107347
H40	H	0.249500	0.679600	0.375100	0.092890
H41	H	0.421400	0.535700	0.161400	0.102383
H42	H	0.568600	0.674000	0.219400	0.126618
H43	H	0.862900	0.079700	0.431400	0.078959
H44	H	0.921200	0.990000	0.367600	0.078959
H45	H	0.887800	0.181000	0.304000	0.069542
H46	H	0.966800	0.096000	0.247400	0.069542
H47	H	0.155900	0.154200	0.296900	0.104044
H48	H	0.127000	0.912600	0.423600	0.106667
H49	H	0.170400	0.995100	0.346300	0.106667
H50	H	0.242000	0.988200	0.449100	0.106667
H51	H	0.063000	0.314700	0.495900	0.107139
H52	H	0.940700	0.243100	0.482700	0.107139
H53	H	0.035300	0.228400	0.573600	0.107139
H54	H	0.276300	0.257700	0.464900	0.107139
H55	H	0.265600	0.169000	0.542700	0.107139
H56	H	0.307000	0.144100	0.434300	0.107139
H57	H	0.940300	0.352700	0.753100	0.078959
H58	H	0.884700	0.271600	0.827800	0.078959
H59	H	0.850700	0.398200	0.934200	0.069542
H60	H	0.919300	0.477500	0.863600	0.069542
H61	H	0.112100	0.458200	0.933900	0.100457
H62	H	0.167700	0.329600	0.705100	0.106667
H63	H	0.177600	0.414000	0.787400	0.106667
H64	H	0.272300	0.319300	0.790100	0.106667
H65	H	0.264000	0.310000	0.051800	0.107139
H66	H	0.295500	0.233900	0.965600	0.107139
H67	H	0.303500	0.352900	0.948300	0.107139
H68	H	0.056500	0.235200	0.078400	0.107139
H69	H	0.947500	0.227000	0.996400	0.107139
H70	H	0.070000	0.154700	0.993000	0.107139
H71	H	0.408200	0.937500	0.639600	0.102383
H72	H	0.567300	0.806400	0.679700	0.126618
H73	H	0.277600	0.790000	0.867300	0.092890
H74	H	0.593300	0.701100	0.858400	0.107347
H75	H	0.458100	0.670500	0.902400	0.107347
H76	H	0.379400	0.618700	0.676700	0.099137
H77	H	0.387400	0.461900	0.597500	0.099137
H78	H	0.641500	0.359900	0.797700	0.099137
H79	H	0.642200	0.513600	0.872900	0.099137
H80	H	0.584000	0.310600	0.572200	0.107347
H81	H	0.440300	0.282900	0.600700	0.107347
H82	H	0.750500	0.179600	0.624900	0.092890
H83	H	0.578600	0.035700	0.838600	0.102383
H84	H	0.431400	0.174000	0.780600	0.126618
C1	C	0.962000	0.532200	0.433700	0.666851
C2	C	0.938900	0.558200	0.541600	-0.057851
C3	C	0.062200	0.558400	0.606700	-0.158724
C4	C	0.040100	0.632800	0.690700	-0.092189
C5	C	0.914100	0.689200	0.667600	-0.267755
C6	C	0.888700	0.671500	0.554300	0.203314
C7	C	0.910400	0.800500	0.696400	0.717075
C8	C	0.840700	0.481300	0.584700	-0.331309
C9	C	0.969900	0.746300	0.495100	-0.386367
C10	C	0.747100	0.687000	0.525500	-0.386367
C11	C	0.902500	0.667400	0.191900	0.678000
C12	C	0.913200	0.782400	0.164000	-0.023908
C13	C	0.050800	0.825400	0.180600	-0.157998
C14	C	0.071700	0.911300	0.104200	-0.093546
C15	C	0.950100	0.908500	0.039200	-0.262395
C16	C	0.889700	0.800300	0.051000	0.203710
C17	C	0.971500	0.937100	0.930300	0.707233
C18	C	0.814800	0.841900	0.226100	-0.331533
C19	C	0.742500	0.799200	0.018200	-0.386367
C20	C	0.960300	0.722300	0.990300	-0.386367
C21	C	0.597400	0.391200	0.308300	0.053124
C22	C	0.510100	0.318900	0.287100	-0.171977
C23	C	0.669400	0.311000	0.184100	0.142870
C24	C	0.496000	0.182500	0.158700	-0.082539
C25	C	0.494000	0.083300	0.216900	0.033674
C26	C	0.566600	0.067000	0.298600	-0.119294
C27	C	0.561200	0.972700	0.346300	-0.119294
C28	C	0.481600	0.895000	0.312500	0.033674
C29	C	0.409800	0.912600	0.228200	-0.119294
C30	C	0.411200	0.003000	0.182200	-0.119294
C31	C	0.473500	0.798500	0.372600	-0.082539
C32	C	0.310500	0.660400	0.328300	0.142870
C33	C	0.404500	0.582000	0.212000	0.053124
C34	C	0.486200	0.658800	0.243800	-0.171977
C35	C	0.038000	0.032200	0.566300	0.666851
C36	C	0.061100	0.058200	0.458400	-0.057851
C37	C	0.937800	0.058400	0.393300	-0.158724
C38	C	0.959900	0.132800	0.309300	-0.092189
C39	C	0.085900	0.189200	0.332400	-0.267755
C40	C	0.111300	0.171500	0.445700	0.203314
C41	C	0.089600	0.300500	0.303600	0.717075
C42	C	0.159300	0.981300	0.415300	-0.331309
C43	C	0.030100	0.246300	0.504900	-0.386367
C44	C	0.252900	0.187000	0.474500	-0.386367
C45	C	0.097500	0.167400	0.808100	0.678000
C46	C	0.086800	0.282400	0.836000	-0.023908
C47	C	0.949200	0.325400	0.819400	-0.157998
C48	C	0.928300	0.411300	0.895800	-0.093546
C49	C	0.049900	0.408500	0.960800	-0.262395
C50	C	0.110300	0.300300	0.949000	0.203710
C51	C	0.028500	0.437100	0.069700	0.707233
C52	C	0.185200	0.341900	0.773900	-0.331533
C53	C	0.257500	0.299200	0.981800	-0.386367
C54	C	0.039700	0.222300	0.009700	-0.386367
C55	C	0.402600	0.891200	0.691700	0.053124
C56	C	0.489900	0.818900	0.712900	-0.171977
C57	C	0.330600	0.811000	0.815900	0.142870
C58	C	0.504000	0.682500	0.841300	-0.082539
C59	C	0.506000	0.583300	0.783100	0.033674
C60	C	0.433400	0.567000	0.701400	-0.119294
C61	C	0.438800	0.472700	0.653700	-0.119294
C62	C	0.518400	0.395000	0.687500	0.033674
C63	C	0.590200	0.412600	0.771800	-0.119294
C64	C	0.588800	0.503000	0.817800	-0.119294
C65	C	0.526500	0.298500	0.627400	-0.082539
C66	C	0.689500	0.160400	0.671700	0.142870
C67	C	0.595500	0.082000	0.788000	0.053124
C68	C	0.513800	0.158800	0.756200	-0.171977
N1	N	0.695900	0.387400	0.242700	-0.392536
N2	N	0.555100	0.266100	0.207400	0.065024
N3	N	0.425000	0.708000	0.316500	0.065024
N4	N	0.293700	0.585000	0.267600	-0.392536
N5	N	0.304100	0.887400	0.757300	-0.392536
N6	N	0.444900	0.766100	0.792600	0.065024
N7	N	0.575000	0.208000	0.683500	0.065024
N8	N	0.706300	0.085000	0.732400	-0.392536
O1	O	0.860900	0.516600	0.381700	-0.583082
O2	O	0.077000	0.528600	0.402500	-0.583082
O3	O	0.800500	0.846000	0.697100	-0.574446
O4	O	0.013500	0.847800	0.716300	-0.688919
O5	O	0.791700	0.625500	0.189600	-0.551130
O6	O	0.002600	0.621200	0.219400	-0.656971
O7	O	0.870400	0.960000	0.880700	-0.597275
O8	O	0.086400	0.936900	0.899400	-0.597275
O9	O	0.139100	0.016600	0.618300	-0.583082
O10	O	0.923000	0.028600	0.597500	-0.583082
O11	O	0.199500	0.346000	0.302900	-0.574446
O12	O	0.986500	0.347800	0.283700	-0.688919
O13	O	0.208300	0.125500	0.810400	-0.551130
O14	O	0.997400	0.121200	0.780600	-0.656971
O15	O	0.129600	0.460000	0.119300	-0.597275
O16	O	0.913600	0.436900	0.100600	-0.597275
