data_DEYJOI_clean_PM
_symmetry_space_group_name_H-M	'P1'
_cell_length_a	7.774500
_cell_length_b	11.463501
_cell_length_c	13.537700
_cell_angle_alpha	96.803000
_cell_angle_beta	105.709996
_cell_angle_gamma	99.225002
_symmetry_Int_Tables_number 1

loop_
_symmetry_equiv_pos_as_xyz
'x,y,z'

loop_
_atom_site_label
_atom_site_type_symbol
_atom_site_fract_x
_atom_site_fract_y
_atom_site_fract_z
_atom_site_charge
V1	V	0.857570	0.676610	0.974770	2.073701
V2	V	0.794450	0.419530	0.860440	1.287750
V3	V	0.142430	0.323390	0.025230	2.073701
V4	V	0.205550	0.580470	0.139560	1.287750
Co1	Co	0.500000	0.500000	0.000000	1.090973
Co2	Co	0.000000	0.000000	0.000000	0.897195
H1	H	0.078100	0.863900	0.818400	0.077447
H2	H	0.082000	0.873600	0.651300	0.122796
H3	H	0.872900	0.170700	0.667600	0.122796
H4	H	0.868700	0.148800	0.833500	0.077447
H5	H	0.949200	0.107700	0.510500	0.100374
H6	H	0.663300	0.655700	0.217300	0.074987
H7	H	0.819500	0.642000	0.386600	0.122796
H8	H	0.913600	0.327500	0.273400	0.122796
H9	H	0.730800	0.341000	0.113600	0.074987
H10	H	0.059100	0.405700	0.457300	0.100374
H11	H	0.921900	0.136100	0.181600	0.077447
H12	H	0.918000	0.126400	0.348700	0.122796
H13	H	0.127100	0.829300	0.332400	0.122796
H14	H	0.131300	0.851200	0.166500	0.077447
H15	H	0.050800	0.892300	0.489500	0.100374
H16	H	0.336700	0.344300	0.782700	0.074987
H17	H	0.180500	0.358000	0.613400	0.122796
H18	H	0.086400	0.672500	0.726600	0.122796
H19	H	0.269200	0.659000	0.886400	0.074987
H20	H	0.940900	0.594300	0.542700	0.100374
C1	C	0.036100	0.926220	0.787350	0.166300
C2	C	0.039300	0.931570	0.686900	-0.206492
C3	C	0.978100	0.024510	0.638820	0.119976
C4	C	0.914700	0.106960	0.696230	-0.206492
C5	C	0.914200	0.093750	0.796640	0.166300
C6	C	0.979800	0.038200	0.533050	-0.129426
C7	C	0.709100	0.587070	0.230020	0.166199
C8	C	0.807400	0.580700	0.332200	-0.206674
C9	C	0.886800	0.481600	0.351400	0.119976
C10	C	0.859100	0.393700	0.265500	-0.206674
C11	C	0.751500	0.403600	0.168500	0.166199
C12	C	0.993700	0.467000	0.454660	-0.129426
C13	C	0.963900	0.073780	0.212650	0.166300
C14	C	0.960700	0.068430	0.313100	-0.206492
C15	C	0.021900	0.975490	0.361180	0.119976
C16	C	0.085300	0.893040	0.303770	-0.206492
C17	C	0.085800	0.906250	0.203360	0.166300
C18	C	0.020200	0.961800	0.466950	-0.129426
C19	C	0.290900	0.412930	0.769980	0.166199
C20	C	0.192600	0.419300	0.667800	-0.206674
C21	C	0.113200	0.518400	0.648600	0.119976
C22	C	0.140900	0.606300	0.734500	-0.206674
C23	C	0.248500	0.596400	0.831500	0.166199
C24	C	0.006300	0.533000	0.545340	-0.129426
N1	N	0.975600	0.006100	0.842590	-0.353391
N2	N	0.676100	0.497650	0.149540	-0.329221
N3	N	0.024400	0.993900	0.157410	-0.353391
N4	N	0.323900	0.502350	0.850460	-0.329221
O1	O	0.654090	0.403660	0.932610	-0.817249
O2	O	0.650560	0.663480	0.989790	-0.838866
O3	O	0.001540	0.632580	0.083050	-0.965962
O4	O	0.938050	0.815640	0.966820	-0.901450
O5	O	0.847350	0.578480	0.858800	-0.965962
O6	O	0.345910	0.596340	0.067390	-0.817249
O7	O	0.349440	0.336520	0.010210	-0.838866
O8	O	0.998460	0.367420	0.916950	-0.965962
O9	O	0.061950	0.184360	0.033180	-0.901450
O10	O	0.152650	0.421520	0.141200	-0.965962
