data_DEYVUA_clean_PM
_symmetry_space_group_name_H-M	'P1'
_cell_length_a	13.464100
_cell_length_b	13.464100
_cell_length_c	23.375100
_cell_angle_alpha	90.000000
_cell_angle_beta	90.000000
_cell_angle_gamma	90.000000
_symmetry_Int_Tables_number 1

loop_
_symmetry_equiv_pos_as_xyz
'x,y,z'

loop_
_atom_site_label
_atom_site_type_symbol
_atom_site_fract_x
_atom_site_fract_y
_atom_site_fract_z
_atom_site_charge
Zn1	Zn	0.142100	0.204290	0.941360	0.924877
Zn2	Zn	0.857900	0.795710	0.441360	0.924877
Zn3	Zn	0.295710	0.642100	0.191360	0.924877
Zn4	Zn	0.704290	0.357900	0.691360	0.924877
Zn5	Zn	0.357900	0.704290	0.308640	0.924877
Zn6	Zn	0.642100	0.295710	0.808640	0.924877
Zn7	Zn	0.204290	0.142100	0.058640	0.924877
Zn8	Zn	0.795710	0.857900	0.558640	0.924877
H1	H	0.013100	0.331900	0.719900	0.105413
H2	H	0.224000	0.247400	0.830200	0.094930
H3	H	0.947300	0.255800	0.880100	0.080499
H4	H	0.327800	0.312400	0.777100	0.107074
H5	H	0.410400	0.327900	0.614000	0.098104
H6	H	0.249600	0.310400	0.585700	0.099671
H7	H	0.124200	0.289500	0.652800	0.104845
H8	H	0.986900	0.668100	0.219900	0.105413
H9	H	0.776000	0.752600	0.330200	0.094930
H10	H	0.052700	0.744200	0.380100	0.080499
H11	H	0.672200	0.687600	0.277100	0.107074
H12	H	0.589600	0.672100	0.114000	0.098104
H13	H	0.750400	0.689600	0.085700	0.099671
H14	H	0.875800	0.710500	0.152800	0.104845
H15	H	0.168100	0.513100	0.969900	0.105413
H16	H	0.252600	0.724000	0.080200	0.094930
H17	H	0.244200	0.447300	0.130100	0.080499
H18	H	0.187600	0.827800	0.027100	0.107074
H19	H	0.172100	0.910400	0.864000	0.098104
H20	H	0.189600	0.749600	0.835700	0.099671
H21	H	0.210500	0.624200	0.902800	0.104845
H22	H	0.831900	0.486900	0.469900	0.105413
H23	H	0.747400	0.276000	0.580200	0.094930
H24	H	0.755800	0.552700	0.630100	0.080499
H25	H	0.812400	0.172200	0.527100	0.107074
H26	H	0.827900	0.089600	0.364000	0.098104
H27	H	0.810400	0.250400	0.335700	0.099671
H28	H	0.789500	0.375800	0.402800	0.104845
H29	H	0.486900	0.831900	0.530100	0.105413
H30	H	0.276000	0.747400	0.419800	0.094930
H31	H	0.552700	0.755800	0.369900	0.080499
H32	H	0.172200	0.812400	0.472900	0.107074
H33	H	0.089600	0.827900	0.636000	0.098104
H34	H	0.250400	0.810400	0.664300	0.099671
H35	H	0.375800	0.789500	0.597200	0.104845
H36	H	0.513100	0.168100	0.030100	0.105413
H37	H	0.724000	0.252600	0.919800	0.094930
H38	H	0.447300	0.244200	0.869900	0.080499
H39	H	0.827800	0.187600	0.972900	0.107074
H40	H	0.910400	0.172100	0.136000	0.098104
H41	H	0.749600	0.189600	0.164300	0.099671
H42	H	0.624200	0.210500	0.097200	0.104845
H43	H	0.331900	0.013100	0.280100	0.105413
H44	H	0.247400	0.224000	0.169800	0.094930
H45	H	0.255800	0.947300	0.119900	0.080499
H46	H	0.312400	0.327800	0.222900	0.107074
H47	H	0.327900	0.410400	0.386000	0.098104
H48	H	0.310400	0.249600	0.414300	0.099671
H49	H	0.289500	0.124200	0.347200	0.104845
H50	H	0.668100	0.986900	0.780100	0.105413
H51	H	0.752600	0.776000	0.669800	0.094930
H52	H	0.744200	0.052700	0.619900	0.080499
H53	H	0.687600	0.672200	0.722900	0.107074
H54	H	0.672100	0.589600	0.886000	0.098104
H55	H	0.689600	0.750400	0.914300	0.099671
H56	H	0.710500	0.875800	0.847200	0.104845
C1	C	0.854900	0.309000	0.785400	0.691408
C2	C	0.963200	0.294700	0.798100	-0.206286
C3	C	0.033100	0.309600	0.755800	0.015042
C4	C	0.133300	0.291700	0.766300	-0.063884
C5	C	0.157800	0.260800	0.821900	0.138388
C6	C	0.994300	0.265200	0.851400	0.188526
C7	C	0.212100	0.303700	0.722700	0.064440
C8	C	0.311600	0.312300	0.738500	-0.086875
C9	C	0.387500	0.320800	0.698200	-0.122479
C10	C	0.361100	0.320700	0.641600	-0.030347
C11	C	0.264900	0.310300	0.624500	-0.102399
C12	C	0.189400	0.299500	0.664700	-0.121890
C13	C	0.491300	0.328100	0.717200	0.668416
C14	C	0.145100	0.691000	0.285400	0.691408
C15	C	0.036800	0.705300	0.298100	-0.206286
C16	C	0.966900	0.690400	0.255800	0.015042
C17	C	0.866700	0.708300	0.266300	-0.063884
C18	C	0.842200	0.739200	0.321900	0.138388
C19	C	0.005700	0.734800	0.351400	0.188526
C20	C	0.787900	0.696300	0.222700	0.064440
C21	C	0.688400	0.687700	0.238500	-0.086875
C22	C	0.612500	0.679200	0.198200	-0.122479
C23	C	0.638900	0.679300	0.141600	-0.030347
C24	C	0.735100	0.689700	0.124500	-0.102399
C25	C	0.810600	0.700500	0.164700	-0.121890
C26	C	0.508700	0.671900	0.217200	0.668416
C27	C	0.191000	0.354900	0.035400	0.691408
C28	C	0.205300	0.463200	0.048100	-0.206286
C29	C	0.190400	0.533100	0.005800	0.015042
C30	C	0.208300	0.633300	0.016300	-0.063884
C31	C	0.239200	0.657800	0.071900	0.138388
C32	C	0.234800	0.494300	0.101400	0.188526
C33	C	0.196300	0.712100	0.972700	0.064440
C34	C	0.187700	0.811600	0.988500	-0.086875
C35	C	0.179200	0.887500	0.948200	-0.122479
C36	C	0.179300	0.861100	0.891600	-0.030347
C37	C	0.189700	0.764900	0.874500	-0.102399
C38	C	0.200500	0.689400	0.914700	-0.121890
C39	C	0.171900	0.991300	0.967200	0.668416
C40	C	0.809000	0.645100	0.535400	0.691408
C41	C	0.794700	0.536800	0.548100	-0.206286
C42	C	0.809600	0.466900	0.505800	0.015042
C43	C	0.791700	0.366700	0.516300	-0.063884
C44	C	0.760800	0.342200	0.571900	0.138388
C45	C	0.765200	0.505700	0.601400	0.188526
C46	C	0.803700	0.287900	0.472700	0.064440
C47	C	0.812300	0.188400	0.488500	-0.086875
C48	C	0.820800	0.112500	0.448200	-0.122479
C49	C	0.820700	0.138900	0.391600	-0.030347
C50	C	0.810300	0.235100	0.374500	-0.102399
C51	C	0.799500	0.310600	0.414700	-0.121890
C52	C	0.828100	0.008700	0.467200	0.668416
C53	C	0.645100	0.809000	0.464600	0.691408
C54	C	0.536800	0.794700	0.451900	-0.206286
C55	C	0.466900	0.809600	0.494200	0.015042
C56	C	0.366700	0.791700	0.483700	-0.063884
C57	C	0.342200	0.760800	0.428100	0.138388
C58	C	0.505700	0.765200	0.398600	0.188526
C59	C	0.287900	0.803700	0.527300	0.064440
C60	C	0.188400	0.812300	0.511500	-0.086875
C61	C	0.112500	0.820800	0.551800	-0.122479
C62	C	0.138900	0.820700	0.608400	-0.030347
C63	C	0.235100	0.810300	0.625500	-0.102399
C64	C	0.310600	0.799500	0.585300	-0.121890
C65	C	0.008700	0.828100	0.532800	0.668416
C66	C	0.354900	0.191000	0.964600	0.691408
C67	C	0.463200	0.205300	0.951900	-0.206286
C68	C	0.533100	0.190400	0.994200	0.015042
C69	C	0.633300	0.208300	0.983700	-0.063884
C70	C	0.657800	0.239200	0.928100	0.138388
C71	C	0.494300	0.234800	0.898600	0.188526
C72	C	0.712100	0.196300	0.027300	0.064440
C73	C	0.811600	0.187700	0.011500	-0.086875
C74	C	0.887500	0.179200	0.051800	-0.122479
C75	C	0.861100	0.179300	0.108400	-0.030347
C76	C	0.764900	0.189700	0.125500	-0.102399
C77	C	0.689400	0.200500	0.085300	-0.121890
C78	C	0.991300	0.171900	0.032800	0.668416
C79	C	0.309000	0.854900	0.214600	0.691408
C80	C	0.294700	0.963200	0.201900	-0.206286
C81	C	0.309600	0.033100	0.244200	0.015042
C82	C	0.291700	0.133300	0.233700	-0.063884
C83	C	0.260800	0.157800	0.178100	0.138388
C84	C	0.265200	0.994300	0.148600	0.188526
C85	C	0.303700	0.212100	0.277300	0.064440
C86	C	0.312300	0.311600	0.261500	-0.086875
C87	C	0.320800	0.387500	0.301800	-0.122479
C88	C	0.320700	0.361100	0.358400	-0.030347
C89	C	0.310300	0.264900	0.375500	-0.102399
C90	C	0.299500	0.189400	0.335300	-0.121890
C91	C	0.328100	0.491300	0.282800	0.668416
C92	C	0.691000	0.145100	0.714600	0.691408
C93	C	0.705300	0.036800	0.701900	-0.206286
C94	C	0.690400	0.966900	0.744200	0.015042
C95	C	0.708300	0.866700	0.733700	-0.063884
C96	C	0.739200	0.842200	0.678100	0.138388
C97	C	0.734800	0.005700	0.648600	0.188526
C98	C	0.696300	0.787900	0.777300	0.064440
C99	C	0.687700	0.688400	0.761500	-0.086875
C100	C	0.679200	0.612500	0.801800	-0.122479
C101	C	0.679300	0.638900	0.858400	-0.030347
C102	C	0.689700	0.735100	0.875500	-0.102399
C103	C	0.700500	0.810600	0.835300	-0.121890
C104	C	0.671900	0.508700	0.782800	0.668416
N1	N	0.090700	0.249700	0.863400	-0.305246
N2	N	0.909300	0.750300	0.363400	-0.305246
N3	N	0.250300	0.590700	0.113400	-0.305246
N4	N	0.749700	0.409300	0.613400	-0.305246
N5	N	0.409300	0.749700	0.386600	-0.305246
N6	N	0.590700	0.250300	0.886600	-0.305246
N7	N	0.249700	0.090700	0.136600	-0.305246
N8	N	0.750300	0.909300	0.636600	-0.305246
O1	O	0.793800	0.287800	0.824200	-0.586137
O2	O	0.834100	0.340300	0.736700	-0.586137
O3	O	0.509700	0.313200	0.769200	-0.584976
O4	O	0.555600	0.346500	0.680300	-0.584976
O5	O	0.206200	0.712200	0.324200	-0.586137
O6	O	0.165900	0.659700	0.236700	-0.586137
O7	O	0.490300	0.686800	0.269200	-0.584976
O8	O	0.444400	0.653500	0.180300	-0.584976
O9	O	0.212200	0.293800	0.074200	-0.586137
O10	O	0.159700	0.334100	0.986700	-0.586137
O11	O	0.186800	0.009700	0.019200	-0.584976
O12	O	0.153500	0.055600	0.930300	-0.584976
O13	O	0.787800	0.706200	0.574200	-0.586137
O14	O	0.840300	0.665900	0.486700	-0.586137
O15	O	0.813200	0.990300	0.519200	-0.584976
O16	O	0.846500	0.944400	0.430300	-0.584976
O17	O	0.706200	0.787800	0.425800	-0.586137
O18	O	0.665900	0.840300	0.513300	-0.586137
O19	O	0.990300	0.813200	0.480800	-0.584976
O20	O	0.944400	0.846500	0.569700	-0.584976
O21	O	0.293800	0.212200	0.925800	-0.586137
O22	O	0.334100	0.159700	0.013300	-0.586137
O23	O	0.009700	0.186800	0.980800	-0.584976
O24	O	0.055600	0.153500	0.069700	-0.584976
O25	O	0.287800	0.793800	0.175800	-0.586137
O26	O	0.340300	0.834100	0.263300	-0.586137
O27	O	0.313200	0.509700	0.230800	-0.584976
O28	O	0.346500	0.555600	0.319700	-0.584976
O29	O	0.712200	0.206200	0.675800	-0.586137
O30	O	0.659700	0.165900	0.763300	-0.586137
O31	O	0.686800	0.490300	0.730800	-0.584976
O32	O	0.653500	0.444400	0.819700	-0.584976
