data_EBOTOF_clean_PM
_symmetry_space_group_name_H-M	'P1'
_cell_length_a	4.911400
_cell_length_b	12.059100
_cell_length_c	19.164700
_cell_angle_alpha	90.000000
_cell_angle_beta	90.000000
_cell_angle_gamma	90.000000
_symmetry_Int_Tables_number 1

loop_
_symmetry_equiv_pos_as_xyz
'x,y,z'

loop_
_atom_site_label
_atom_site_type_symbol
_atom_site_fract_x
_atom_site_fract_y
_atom_site_fract_z
_atom_site_charge
Al1	Al	0.266300	0.750000	0.937660	1.976713
Al2	Al	0.266300	0.750000	0.562340	1.976713
Al3	Al	0.733700	0.250000	0.437660	1.976713
Al4	Al	0.733700	0.250000	0.062340	1.976713
Al5	Al	0.000000	0.000000	0.000000	1.801910
Al6	Al	0.000000	0.500000	0.500000	1.801910
Al7	Al	0.000000	0.000000	0.500000	1.801910
Al8	Al	0.000000	0.500000	0.000000	1.801910
P1	P	0.497600	0.984570	0.895290	1.928808
P2	P	0.497600	0.515430	0.604710	1.928808
P3	P	0.502400	0.015430	0.395290	1.928808
P4	P	0.502400	0.484570	0.104710	1.928808
P5	P	0.502400	0.015430	0.104710	1.928808
P6	P	0.502400	0.484570	0.395290	1.928808
P7	P	0.497600	0.984570	0.604710	1.928808
P8	P	0.497600	0.515430	0.895290	1.928808
C1	C	0.440800	0.051600	0.812420	-0.244195
C2	C	0.440800	0.448400	0.687580	-0.244195
C3	C	0.559200	0.948400	0.312420	-0.244195
C4	C	0.559200	0.551600	0.187580	-0.244195
C5	C	0.559200	0.948400	0.187580	-0.244195
C6	C	0.559200	0.551600	0.312420	-0.244195
C7	C	0.440800	0.051600	0.687580	-0.244195
C8	C	0.440800	0.448400	0.812420	-0.244195
C9	C	0.548600	0.987600	0.750000	0.097722
C10	C	0.548600	0.512400	0.750000	0.097722
C11	C	0.451400	0.012400	0.250000	0.097722
C12	C	0.451400	0.487600	0.250000	0.097722
O1	O	0.799700	0.997000	0.914670	-0.967478
O2	O	0.465600	0.857600	0.889800	-1.003372
O3	O	0.317200	0.041300	0.950800	-0.967478
O4	O	0.799700	0.503000	0.585330	-0.967478
O5	O	0.465600	0.642400	0.610200	-1.003372
O6	O	0.317200	0.458700	0.549200	-0.967478
O7	O	0.200300	0.003000	0.414670	-0.967478
O8	O	0.534400	0.142400	0.389800	-1.003372
O9	O	0.682800	0.958700	0.450800	-0.967478
O10	O	0.200300	0.497000	0.085330	-0.967478
O11	O	0.534400	0.357600	0.110200	-1.003372
O12	O	0.682800	0.541300	0.049200	-0.967478
O13	O	0.200300	0.003000	0.085330	-0.967478
O14	O	0.534400	0.142400	0.110200	-1.003372
O15	O	0.682800	0.958700	0.049200	-0.967478
O16	O	0.200300	0.497000	0.414670	-0.967478
O17	O	0.534400	0.357600	0.389800	-1.003372
O18	O	0.682800	0.541300	0.450800	-0.967478
O19	O	0.799700	0.997000	0.585330	-0.967478
O20	O	0.465600	0.857600	0.610200	-1.003372
O21	O	0.317200	0.041300	0.549200	-0.967478
O22	O	0.799700	0.503000	0.914670	-0.967478
O23	O	0.465600	0.642400	0.889800	-1.003372
O24	O	0.317200	0.458700	0.950800	-0.967478
F1	F	0.073700	0.853900	0.986500	-0.684457
F2	F	0.073700	0.646100	0.513500	-0.684457
F3	F	0.926300	0.146100	0.486500	-0.684457
F4	F	0.926300	0.353900	0.013500	-0.684457
F5	F	0.926300	0.146100	0.013500	-0.684457
F6	F	0.926300	0.353900	0.486500	-0.684457
F7	F	0.073700	0.853900	0.513500	-0.684457
F8	F	0.073700	0.646100	0.986500	-0.684457
