data_ECASAD_clean_PM
_symmetry_space_group_name_H-M	'P1'
_cell_length_a	9.065600
_cell_length_b	10.229000
_cell_length_c	11.763990
_cell_angle_alpha	115.769893
_cell_angle_beta	90.189102
_cell_angle_gamma	89.999997
_symmetry_Int_Tables_number 1

loop_
_symmetry_equiv_pos_as_xyz
'x,y,z'

loop_
_atom_site_label
_atom_site_type_symbol
_atom_site_fract_x
_atom_site_fract_y
_atom_site_fract_z
_atom_site_charge
Zn1	Zn	0.929960	0.293120	0.446880	1.096895
Zn2	Zn	0.570040	0.846240	0.553120	1.096895
Zn3	Zn	0.070040	0.706880	0.553120	1.096895
Zn4	Zn	0.429960	0.153760	0.446880	1.096895
P1	P	0.736710	0.120700	0.556140	1.553411
P2	P	0.763290	0.564560	0.443860	1.553411
P3	P	0.263290	0.879300	0.443860	1.553411
P4	P	0.236710	0.435440	0.556140	1.553411
H1	H	0.885900	0.166300	0.693600	0.428321
H2	H	0.014600	0.384300	0.240200	0.085720
H3	H	0.153800	0.298800	0.060800	0.131468
H4	H	0.212700	0.930000	0.095400	0.131468
H5	H	0.068800	0.026200	0.274000	0.085720
H6	H	0.614100	0.472700	0.306400	0.428321
H7	H	0.485400	0.144100	0.759800	0.085720
H8	H	0.346200	0.238000	0.939200	0.131468
H9	H	0.287300	0.834600	0.904600	0.131468
H10	H	0.431200	0.752200	0.726000	0.085720
H11	H	0.114100	0.833700	0.306400	0.428321
H12	H	0.985400	0.615700	0.759800	0.085720
H13	H	0.846200	0.701200	0.939200	0.131468
H14	H	0.787300	0.070000	0.904600	0.131468
H15	H	0.931200	0.973800	0.726000	0.085720
H16	H	0.385900	0.527300	0.693600	0.428321
H17	H	0.514600	0.855900	0.240200	0.085720
H18	H	0.653800	0.762000	0.060800	0.131468
H19	H	0.712700	0.165400	0.095400	0.131468
H20	H	0.568800	0.247800	0.274000	0.085720
C1	C	0.054900	0.291900	0.210800	0.188183
C2	C	0.139200	0.241320	0.103040	-0.194270
C3	C	0.202400	0.103850	0.057300	0.095539
C4	C	0.174000	0.022990	0.122980	-0.194270
C5	C	0.087000	0.081940	0.230680	0.188183
C6	C	0.445100	0.081100	0.789200	0.188183
C7	C	0.360800	0.138280	0.896960	-0.194270
C8	C	0.297600	0.046550	0.942700	0.095539
C9	C	0.326000	0.900010	0.877020	-0.194270
C10	C	0.413000	0.851260	0.769320	0.188183
C11	C	0.945100	0.708100	0.789200	0.188183
C12	C	0.860800	0.758680	0.896960	-0.194270
C13	C	0.797600	0.896150	0.942700	0.095539
C14	C	0.826000	0.977010	0.877020	-0.194270
C15	C	0.913000	0.918060	0.769320	0.188183
C16	C	0.554900	0.918900	0.210800	0.188183
C17	C	0.639200	0.861720	0.103040	-0.194270
C18	C	0.702400	0.953450	0.057300	0.095539
C19	C	0.674000	0.099990	0.122980	-0.194270
C20	C	0.587000	0.148740	0.230680	0.188183
N1	N	0.028500	0.214080	0.274960	-0.344337
N2	N	0.471500	0.939120	0.725040	-0.344337
N3	N	0.971500	0.785920	0.725040	-0.344337
N4	N	0.528500	0.060880	0.274960	-0.344337
O1	O	0.841500	0.128580	0.459020	-0.844641
O2	O	0.091600	0.368030	0.567860	-0.844641
O3	O	0.715400	0.962650	0.525180	-0.844641
O4	O	0.806000	0.202710	0.691420	-0.718110
O5	O	0.658500	0.669560	0.540980	-0.844641
O6	O	0.408400	0.800170	0.432140	-0.844641
O7	O	0.784600	0.437470	0.474820	-0.844641
O8	O	0.694000	0.511290	0.308580	-0.718110
O9	O	0.158500	0.871420	0.540980	-0.844641
O10	O	0.908400	0.631970	0.432140	-0.844641
O11	O	0.284600	0.037350	0.474820	-0.844641
O12	O	0.194000	0.797290	0.308580	-0.718110
O13	O	0.341500	0.330440	0.459020	-0.844641
O14	O	0.591600	0.199830	0.567860	-0.844641
O15	O	0.215400	0.562530	0.525180	-0.844641
O16	O	0.306000	0.488710	0.691420	-0.718110
