data_EJEFOP_clean_PM
_symmetry_space_group_name_H-M	'P1'
_cell_length_a	12.148000
_cell_length_b	13.123000
_cell_length_c	13.980000
_cell_angle_alpha	75.633000
_cell_angle_beta	64.450001
_cell_angle_gamma	67.616001
_symmetry_Int_Tables_number 1

loop_
_symmetry_equiv_pos_as_xyz
'x,y,z'

loop_
_atom_site_label
_atom_site_type_symbol
_atom_site_fract_x
_atom_site_fract_y
_atom_site_fract_z
_atom_site_charge
Cd1	Cd	0.150620	0.553850	0.449130	0.968414
Cd2	Cd	0.249780	0.491860	0.722870	0.981674
Cd3	Cd	0.849380	0.446150	0.550870	0.968414
Cd4	Cd	0.750220	0.508140	0.277130	0.981674
H1	H	0.449200	0.807700	0.315900	0.135794
H2	H	0.382200	0.658600	0.446400	0.116058
H3	H	0.096400	0.915100	0.189300	0.119663
H4	H	0.918200	0.921100	0.168400	0.095895
H5	H	0.832300	0.779500	0.240400	0.130061
H6	H	0.926800	0.634000	0.344000	0.082728
H7	H	0.412800	0.891500	0.138000	0.097226
H8	H	0.291200	0.887000	0.127900	0.097226
H9	H	0.282800	0.040800	0.243700	0.083703
H10	H	0.161600	0.036800	0.232000	0.083703
H11	H	0.373800	0.076600	0.053400	0.083703
H12	H	0.241700	0.088000	0.051100	0.083703
H13	H	0.263200	0.229900	0.161400	0.097226
H14	H	0.139700	0.245600	0.141800	0.097226
H15	H	0.453000	0.279000	0.013400	0.135794
H16	H	0.481800	0.386800	0.840200	0.114348
H17	H	0.028800	0.261500	0.071100	0.119663
H18	H	0.828300	0.311700	0.066700	0.095895
H19	H	0.774300	0.446600	0.936300	0.130061
H20	H	0.933800	0.519200	0.807400	0.082331
H21	H	0.763600	0.857500	0.521000	0.100952
H22	H	0.829000	0.010400	0.466800	0.106162
H23	H	0.099900	0.855300	0.591100	0.106677
H24	H	0.377000	0.148100	0.588600	0.106677
H25	H	0.678100	0.992400	0.352800	0.106162
H26	H	0.720200	0.154800	0.274800	0.100952
H27	H	0.550800	0.192300	0.684100	0.135794
H28	H	0.617800	0.341400	0.553600	0.116058
H29	H	0.903600	0.084900	0.810700	0.119663
H30	H	0.081800	0.078900	0.831600	0.095895
H31	H	0.167700	0.220500	0.759600	0.130061
H32	H	0.073200	0.366000	0.656000	0.082728
H33	H	0.587200	0.108500	0.862000	0.097226
H34	H	0.708800	0.113000	0.872100	0.097226
H35	H	0.717200	0.959200	0.756300	0.083703
H36	H	0.838400	0.963200	0.768000	0.083703
H37	H	0.626200	0.923400	0.946600	0.083703
H38	H	0.758300	0.912000	0.948900	0.083703
H39	H	0.736800	0.770100	0.838600	0.097226
H40	H	0.860300	0.754400	0.858200	0.097226
H41	H	0.547000	0.721000	0.986600	0.135794
H42	H	0.518200	0.613200	0.159800	0.114348
H43	H	0.971200	0.738500	0.928900	0.119663
H44	H	0.171700	0.688300	0.933300	0.095895
H45	H	0.225700	0.553400	0.063700	0.130061
H46	H	0.066200	0.480800	0.192600	0.082331
H47	H	0.236400	0.142500	0.479000	0.100952
H48	H	0.171000	0.989600	0.533200	0.106162
H49	H	0.900100	0.144700	0.408900	0.106677
H50	H	0.623000	0.851900	0.411400	0.106677
H51	H	0.321900	0.007600	0.647200	0.106162
H52	H	0.279800	0.845200	0.725200	0.100952
C1	C	0.382400	0.782900	0.326000	-0.150440
C2	C	0.346200	0.700100	0.396700	0.046554
C3	C	0.216800	0.762500	0.311700	0.194920
C4	C	0.108500	0.770700	0.283400	0.168024
C5	C	0.059200	0.858800	0.221300	-0.157422
C6	C	0.955200	0.860800	0.208300	0.005675
C7	C	0.903100	0.778900	0.250900	-0.172049
C8	C	0.961300	0.691900	0.312400	0.183241
C9	C	0.321300	0.902800	0.174900	-0.033240
C10	C	0.253500	0.023800	0.196800	-0.147370
C11	C	0.281800	0.098200	0.093400	-0.147370
C12	C	0.232900	0.221100	0.111100	-0.033240
C13	C	0.395600	0.304700	0.978800	-0.151304
C14	C	0.409600	0.365200	0.884000	0.054024
C15	C	0.221900	0.344200	0.940600	0.191874
C16	C	0.098500	0.362800	0.941600	0.166269
C17	C	0.007900	0.314300	0.018300	-0.157633
C18	C	0.888400	0.344500	0.015700	0.005675
C19	C	0.856100	0.423600	0.937900	-0.171996
C20	C	0.952000	0.467200	0.861700	0.180368
C21	C	0.069600	0.667200	0.658700	0.660678
C22	C	0.995500	0.764900	0.604800	-0.098387
C23	C	0.896900	0.762700	0.582400	-0.048511
C24	C	0.833700	0.856800	0.532800	-0.059071
C25	C	0.872500	0.948500	0.500900	-0.142765
C26	C	0.976700	0.951600	0.518200	0.036826
C27	C	0.033500	0.855700	0.574400	-0.098531
C28	C	0.850300	0.660500	0.616600	0.632485
C29	C	0.370700	0.352500	0.529900	0.654955
C30	C	0.463900	0.249200	0.478700	-0.076607
C31	C	0.443800	0.150200	0.522900	-0.105640
C32	C	0.515300	0.053700	0.476800	0.036826
C33	C	0.622900	0.057500	0.383700	-0.142765
C34	C	0.648600	0.154600	0.337200	-0.059071
C35	C	0.568400	0.253800	0.382400	-0.052027
C36	C	0.604400	0.360800	0.330900	0.623691
C37	C	0.617600	0.217100	0.674000	-0.150440
C38	C	0.653800	0.299900	0.603300	0.046554
C39	C	0.783200	0.237500	0.688300	0.194920
C40	C	0.891500	0.229300	0.716600	0.168024
C41	C	0.940800	0.141200	0.778700	-0.157422
C42	C	0.044800	0.139200	0.791700	0.005675
C43	C	0.096900	0.221100	0.749100	-0.172049
C44	C	0.038700	0.308100	0.687600	0.183241
C45	C	0.678700	0.097200	0.825100	-0.033240
C46	C	0.746500	0.976200	0.803200	-0.147370
C47	C	0.718200	0.901800	0.906600	-0.147370
C48	C	0.767100	0.778900	0.888900	-0.033240
C49	C	0.604400	0.695300	0.021200	-0.151304
C50	C	0.590400	0.634800	0.116000	0.054024
C51	C	0.778100	0.655800	0.059400	0.191874
C52	C	0.901500	0.637200	0.058400	0.166269
C53	C	0.992100	0.685700	0.981700	-0.157633
C54	C	0.111600	0.655500	0.984300	0.005675
C55	C	0.143900	0.576400	0.062100	-0.171996
C56	C	0.048000	0.532800	0.138300	0.180368
C57	C	0.930400	0.332800	0.341300	0.660678
C58	C	0.004500	0.235100	0.395200	-0.098387
C59	C	0.103100	0.237300	0.417600	-0.048511
C60	C	0.166300	0.143200	0.467200	-0.059071
C61	C	0.127500	0.051500	0.499100	-0.142765
C62	C	0.023300	0.048400	0.481800	0.036826
C63	C	0.966500	0.144300	0.425600	-0.098531
C64	C	0.149700	0.339500	0.383400	0.632485
C65	C	0.629300	0.647500	0.470100	0.654955
C66	C	0.536100	0.750800	0.521300	-0.076607
C67	C	0.556200	0.849800	0.477100	-0.105640
C68	C	0.484700	0.946300	0.523200	0.036826
C69	C	0.377100	0.942500	0.616300	-0.142765
C70	C	0.351400	0.845400	0.662800	-0.059071
C71	C	0.431600	0.746200	0.617600	-0.052027
C72	C	0.395600	0.639200	0.669100	0.623691
N1	N	0.063700	0.688300	0.327600	-0.376806
N2	N	0.247500	0.687200	0.383200	-0.407681
N3	N	0.300800	0.823400	0.271700	0.052255
N4	N	0.070600	0.436400	0.864400	-0.354043
N5	N	0.303100	0.390800	0.860700	-0.382096
N6	N	0.275000	0.288600	0.014600	0.052209
N7	N	0.936300	0.311700	0.672400	-0.376806
N8	N	0.752500	0.312800	0.616800	-0.407681
N9	N	0.699200	0.176600	0.728300	0.052255
N10	N	0.929400	0.563600	0.135600	-0.354043
N11	N	0.696900	0.609200	0.139300	-0.382096
N12	N	0.725000	0.711400	0.985400	0.052209
O1	O	0.095100	0.677500	0.731200	-0.592142
O2	O	0.105500	0.571900	0.623900	-0.642000
O3	O	0.906400	0.590800	0.550300	-0.616797
O4	O	0.767000	0.651800	0.703600	-0.590650
O5	O	0.333400	0.345700	0.628700	-0.616778
O6	O	0.332400	0.435800	0.467400	-0.610285
O7	O	0.621400	0.411000	0.381700	-0.622574
O8	O	0.621900	0.383500	0.234100	-0.588939
O9	O	0.904900	0.322500	0.268800	-0.592142
O10	O	0.894500	0.428100	0.376100	-0.642000
O11	O	0.093600	0.409200	0.449700	-0.616797
O12	O	0.233000	0.348200	0.296400	-0.590650
O13	O	0.666600	0.654300	0.371300	-0.616778
O14	O	0.667600	0.564200	0.532600	-0.610285
O15	O	0.378600	0.589000	0.618300	-0.622574
O16	O	0.378100	0.616500	0.765900	-0.588939
