data_ELIJUF_clean_PM
_symmetry_space_group_name_H-M	'P1'
_cell_length_a	9.353000
_cell_length_b	9.797000
_cell_length_c	11.388000
_cell_angle_alpha	94.340002
_cell_angle_beta	99.406999
_cell_angle_gamma	111.455003
_symmetry_Int_Tables_number 1

loop_
_symmetry_equiv_pos_as_xyz
'x,y,z'

loop_
_atom_site_label
_atom_site_type_symbol
_atom_site_fract_x
_atom_site_fract_y
_atom_site_fract_z
_atom_site_charge
Y1	Y	0.276540	0.545100	0.488550	2.107198
Y2	Y	0.723460	0.454900	0.511450	2.107198
H1	H	0.273800	0.233100	0.121000	0.100036
H2	H	0.176600	0.101800	0.936200	0.132939
H3	H	0.845100	0.269900	0.884500	0.132939
H4	H	0.936800	0.397100	0.078100	0.100036
H5	H	0.199700	0.292400	0.722800	0.128134
H6	H	0.322100	0.002500	0.540100	0.104558
H7	H	0.920500	0.859500	0.660900	0.128134
H8	H	0.726200	0.766900	0.879000	0.100036
H9	H	0.823400	0.898200	0.063800	0.132939
H10	H	0.154900	0.730100	0.115500	0.132939
H11	H	0.063200	0.602900	0.921900	0.100036
H12	H	0.800300	0.707600	0.277200	0.128134
H13	H	0.677900	0.997500	0.459900	0.104558
H14	H	0.079500	0.140500	0.339100	0.128134
C1	C	0.175100	0.412700	0.245200	0.779224
C2	C	0.115900	0.327700	0.123400	-0.195521
C3	C	0.185700	0.239600	0.074500	0.034369
C4	C	0.131000	0.164600	0.963800	-0.227450
C5	C	0.005600	0.179500	0.888900	0.283393
C6	C	0.932000	0.263400	0.932900	-0.227450
C7	C	0.986300	0.338800	0.049100	0.034369
C8	C	0.048000	0.077500	0.707600	0.229077
C9	C	0.180300	0.195600	0.691000	-0.139900
C10	C	0.281100	0.165800	0.626700	-0.127951
C11	C	0.250900	0.022500	0.579600	0.003073
C12	C	0.114100	0.906300	0.590400	-0.127951
C13	C	0.012600	0.935600	0.654200	-0.139900
C14	C	0.419500	0.291000	0.603100	0.770721
C15	C	0.081500	0.753300	0.533200	0.770721
C16	C	0.824900	0.587300	0.754800	0.779224
C17	C	0.884100	0.672300	0.876600	-0.195521
C18	C	0.814300	0.760400	0.925500	0.034369
C19	C	0.869000	0.835400	0.036200	-0.227450
C20	C	0.994400	0.820500	0.111100	0.283393
C21	C	0.068000	0.736600	0.067100	-0.227450
C22	C	0.013700	0.661200	0.950900	0.034369
C23	C	0.952000	0.922500	0.292400	0.229077
C24	C	0.819700	0.804400	0.309000	-0.139900
C25	C	0.718900	0.834200	0.373300	-0.127951
C26	C	0.749100	0.977500	0.420400	0.003073
C27	C	0.885900	0.093700	0.409600	-0.127951
C28	C	0.987400	0.064400	0.345800	-0.139900
C29	C	0.580500	0.709000	0.396900	0.770721
C30	C	0.918500	0.246700	0.466800	0.770721
O1	O	0.122200	0.504500	0.282800	-0.734754
O2	O	0.281500	0.389300	0.316900	-0.734754
O3	O	0.546600	0.275100	0.605800	-0.734754
O4	O	0.402300	0.407700	0.577800	-0.734754
O5	O	0.189100	0.730700	0.491700	-0.734754
O6	O	0.949600	0.655300	0.528500	-0.734754
O7	O	0.945200	0.105000	0.772600	-0.244272
O8	O	0.877800	0.495500	0.717200	-0.734754
O9	O	0.718500	0.610700	0.683100	-0.734754
O10	O	0.453400	0.724900	0.394200	-0.734754
O11	O	0.597700	0.592300	0.422200	-0.734754
O12	O	0.810900	0.269300	0.508300	-0.734754
O13	O	0.050400	0.344700	0.471500	-0.734754
O14	O	0.054800	0.895000	0.227400	-0.244272
