data_ELIKUG_clean_PM
_symmetry_space_group_name_H-M	'P1'
_cell_length_a	9.331000
_cell_length_b	9.841000
_cell_length_c	11.423000
_cell_angle_alpha	94.223999
_cell_angle_beta	98.509998
_cell_angle_gamma	110.952001
_symmetry_Int_Tables_number 1

loop_
_symmetry_equiv_pos_as_xyz
'x,y,z'

loop_
_atom_site_label
_atom_site_type_symbol
_atom_site_fract_x
_atom_site_fract_y
_atom_site_fract_z
_atom_site_charge
Gd1	Gd	0.281150	0.545610	0.985400	2.173926
Gd2	Gd	0.718850	0.454390	0.014600	2.173926
H1	H	0.681400	0.002300	0.962200	0.104920
H2	H	0.805000	0.712400	0.778900	0.128505
H3	H	0.081100	0.139300	0.836800	0.128505
H4	H	0.823500	0.899100	0.568200	0.133300
H5	H	0.730300	0.773100	0.381100	0.100403
H6	H	0.063000	0.602200	0.421700	0.100403
H7	H	0.155500	0.725800	0.615400	0.133300
H8	H	0.318600	0.997700	0.037800	0.104920
H9	H	0.195000	0.287600	0.221100	0.128505
H10	H	0.918900	0.860700	0.163200	0.128505
H11	H	0.176500	0.100900	0.431800	0.133300
H12	H	0.269700	0.226900	0.618900	0.100403
H13	H	0.937000	0.397800	0.578300	0.100403
H14	H	0.844500	0.274200	0.384600	0.133300
C1	C	0.923600	0.247500	0.966700	0.782971
C2	C	0.888500	0.093700	0.910500	-0.118343
C3	C	0.752700	0.981600	0.922200	-0.011766
C4	C	0.722700	0.838200	0.874400	-0.118343
C5	C	0.824200	0.808600	0.809900	-0.146575
C6	C	0.954000	0.921500	0.791300	0.229631
C7	C	0.989700	0.064200	0.845000	-0.146575
C8	C	0.580900	0.717100	0.896900	0.782971
C9	C	0.997100	0.821800	0.611300	0.284050
C10	C	0.870200	0.837700	0.539200	-0.226584
C11	C	0.816100	0.763400	0.427300	0.030496
C12	C	0.884300	0.672600	0.378500	-0.186758
C13	C	0.013900	0.660700	0.451600	0.030496
C14	C	0.070200	0.735000	0.568100	-0.226584
C15	C	0.823500	0.586900	0.259200	0.790822
C16	C	0.076400	0.752500	0.033300	0.782971
C17	C	0.111500	0.906300	0.089500	-0.118343
C18	C	0.247300	0.018400	0.077800	-0.011766
C19	C	0.277300	0.161800	0.125600	-0.118343
C20	C	0.175800	0.191400	0.190100	-0.146575
C21	C	0.046000	0.078500	0.208700	0.229631
C22	C	0.010300	0.935800	0.155000	-0.146575
C23	C	0.419100	0.282900	0.103100	0.782971
C24	C	0.002900	0.178200	0.388700	0.284050
C25	C	0.129800	0.162300	0.460800	-0.226584
C26	C	0.183900	0.236600	0.572700	0.030496
C27	C	0.115700	0.327400	0.621500	-0.186758
C28	C	0.986100	0.339300	0.548400	0.030496
C29	C	0.929800	0.265000	0.431900	-0.226584
C30	C	0.176500	0.413100	0.740800	0.790822
O1	O	0.054200	0.342300	0.968100	-0.751598
O2	O	0.818000	0.270800	0.011300	-0.751598
O3	O	0.452900	0.736200	0.890000	-0.751598
O4	O	0.593700	0.600100	0.926000	-0.751598
O5	O	0.715400	0.609600	0.191600	-0.751598
O6	O	0.876700	0.494400	0.221700	-0.751598
O7	O	0.057300	0.895000	0.725700	-0.243588
O8	O	0.945800	0.657700	0.031900	-0.751598
O9	O	0.182000	0.729200	0.988700	-0.751598
O10	O	0.547100	0.263800	0.110000	-0.751598
O11	O	0.406300	0.399900	0.074000	-0.751598
O12	O	0.284600	0.390400	0.808400	-0.751598
O13	O	0.123300	0.505600	0.778300	-0.751598
O14	O	0.942700	0.105000	0.274300	-0.243588
