data_EPEWAY01_clean_PM
_symmetry_space_group_name_H-M	'P1'
_cell_length_a	11.335800
_cell_length_b	11.335800
_cell_length_c	24.954100
_cell_angle_alpha	90.000000
_cell_angle_beta	90.000000
_cell_angle_gamma	90.000000
_symmetry_Int_Tables_number 1

loop_
_symmetry_equiv_pos_as_xyz
'x,y,z'

loop_
_atom_site_label
_atom_site_type_symbol
_atom_site_fract_x
_atom_site_fract_y
_atom_site_fract_z
_atom_site_charge
Co1	Co	0.599500	0.400500	0.875000	1.128451
Co2	Co	0.400500	0.599500	0.375000	1.128451
Co3	Co	0.599500	0.599500	0.625000	1.128451
Co4	Co	0.400500	0.400500	0.125000	1.128451
Co5	Co	0.707590	0.500000	0.750000	1.128451
Co6	Co	0.292410	0.500000	0.250000	1.128451
Co7	Co	0.500000	0.707590	0.500000	1.128451
Co8	Co	0.500000	0.292410	0.000000	1.128451
H1	H	0.557000	0.570200	0.038900	0.273781
H2	H	0.813700	0.493600	0.945900	0.273781
H3	H	0.582300	0.751000	0.941500	0.095658
H4	H	0.570500	0.949200	0.965400	0.095658
H5	H	0.678200	0.044400	0.819200	0.095658
H6	H	0.697700	0.856900	0.794900	0.095658
H7	H	0.710100	0.724600	0.050600	0.075925
H8	H	0.755300	0.613200	0.082700	0.075925
H9	H	0.899300	0.595000	0.021700	0.075925
H10	H	0.841100	0.692200	0.984900	0.075925
H11	H	0.443000	0.429800	0.538900	0.273781
H12	H	0.186300	0.506400	0.445900	0.273781
H13	H	0.417700	0.249000	0.441500	0.095658
H14	H	0.429500	0.050800	0.465400	0.095658
H15	H	0.321800	0.955600	0.319200	0.095658
H16	H	0.302300	0.143100	0.294900	0.095658
H17	H	0.289900	0.275400	0.550600	0.075925
H18	H	0.244700	0.386800	0.582700	0.075925
H19	H	0.100700	0.405000	0.521700	0.075925
H20	H	0.158900	0.307800	0.484900	0.075925
H21	H	0.429800	0.557000	0.788900	0.273781
H22	H	0.506400	0.813700	0.695900	0.273781
H23	H	0.249000	0.582300	0.691500	0.095658
H24	H	0.050800	0.570500	0.715400	0.095658
H25	H	0.955600	0.678200	0.569200	0.095658
H26	H	0.143100	0.697700	0.544900	0.095658
H27	H	0.275400	0.710100	0.800600	0.075925
H28	H	0.386800	0.755300	0.832700	0.075925
H29	H	0.405000	0.899300	0.771700	0.075925
H30	H	0.307800	0.841100	0.734900	0.075925
H31	H	0.570200	0.443000	0.288900	0.273781
H32	H	0.493600	0.186300	0.195900	0.273781
H33	H	0.751000	0.417700	0.191500	0.095658
H34	H	0.949200	0.429500	0.215400	0.095658
H35	H	0.044400	0.321800	0.069200	0.095658
H36	H	0.856900	0.302300	0.044900	0.095658
H37	H	0.724600	0.289900	0.300600	0.075925
H38	H	0.613200	0.244700	0.332700	0.075925
H39	H	0.595000	0.100700	0.271700	0.075925
H40	H	0.692200	0.158900	0.234900	0.075925
H41	H	0.443000	0.570200	0.961100	0.273781
H42	H	0.186300	0.493600	0.054100	0.273781
H43	H	0.417700	0.751000	0.058500	0.095658
H44	H	0.429500	0.949200	0.034600	0.095658
H45	H	0.321800	0.044400	0.180800	0.095658
H46	H	0.302300	0.856900	0.205100	0.095658
H47	H	0.289900	0.724600	0.949400	0.075925
H48	H	0.244700	0.613200	0.917300	0.075925
H49	H	0.100700	0.595000	0.978300	0.075925
H50	H	0.158900	0.692200	0.015100	0.075925
H51	H	0.557000	0.429800	0.461100	0.273781
H52	H	0.813700	0.506400	0.554100	0.273781
H53	H	0.582300	0.249000	0.558500	0.095658
H54	H	0.570500	0.050800	0.534600	0.095658
H55	H	0.678200	0.955600	0.680800	0.095658
H56	H	0.697700	0.143100	0.705100	0.095658
H57	H	0.710100	0.275400	0.449400	0.075925
H58	H	0.755300	0.386800	0.417300	0.075925
H59	H	0.899300	0.405000	0.478300	0.075925
H60	H	0.841100	0.307800	0.515100	0.075925
H61	H	0.570200	0.557000	0.211100	0.273781
H62	H	0.493600	0.813700	0.304100	0.273781
H63	H	0.751000	0.582300	0.308500	0.095658
H64	H	0.949200	0.570500	0.284600	0.095658
H65	H	0.044400	0.678200	0.430800	0.095658
H66	H	0.856900	0.697700	0.455100	0.095658
H67	H	0.724600	0.710100	0.199400	0.075925
H68	H	0.613200	0.755300	0.167300	0.075925
H69	H	0.595000	0.899300	0.228300	0.075925
H70	H	0.692200	0.841100	0.265100	0.075925
H71	H	0.429800	0.443000	0.711100	0.273781
H72	H	0.506400	0.186300	0.804100	0.273781
H73	H	0.249000	0.417700	0.808500	0.095658
H74	H	0.050800	0.429500	0.784600	0.095658
H75	H	0.955600	0.321800	0.930800	0.095658
H76	H	0.143100	0.302300	0.955100	0.095658
H77	H	0.275400	0.289900	0.699400	0.075925
H78	H	0.386800	0.244700	0.667300	0.075925
H79	H	0.405000	0.100700	0.728300	0.075925
H80	H	0.307800	0.158900	0.765100	0.075925
C1	C	0.644400	0.778500	0.864100	-0.136165
C2	C	0.603200	0.809300	0.917100	-0.082042
C3	C	0.595200	0.929900	0.930900	-0.082042
C4	C	0.621800	0.019900	0.896500	-0.136165
C5	C	0.660300	0.985800	0.844000	-0.082042
C6	C	0.671300	0.873700	0.829400	-0.082042
C7	C	0.648500	0.655200	0.849400	0.666174
C8	C	0.604300	0.144400	0.911500	0.666174
C9	C	0.667300	0.506300	0.984700	0.645043
C10	C	0.730300	0.641600	0.047900	0.004392
C11	C	0.826200	0.621000	0.005300	0.004392
C12	C	0.355600	0.221500	0.364100	-0.136165
C13	C	0.396800	0.190700	0.417100	-0.082042
C14	C	0.404800	0.070100	0.430900	-0.082042
C15	C	0.378200	0.980100	0.396500	-0.136165
C16	C	0.339700	0.014200	0.344000	-0.082042
C17	C	0.328700	0.126300	0.329400	-0.082042
C18	C	0.351500	0.344800	0.349400	0.666174
C19	C	0.395700	0.855600	0.411500	0.666174
C20	C	0.332700	0.493700	0.484700	0.645043
C21	C	0.269700	0.358400	0.547900	0.004392
C22	C	0.173800	0.379000	0.505300	0.004392
C23	C	0.221500	0.644400	0.614100	-0.136165
C24	C	0.190700	0.603200	0.667100	-0.082042
C25	C	0.070100	0.595200	0.680900	-0.082042
C26	C	0.980100	0.621800	0.646500	-0.136165
C27	C	0.014200	0.660300	0.594000	-0.082042
C28	C	0.126300	0.671300	0.579400	-0.082042
C29	C	0.344800	0.648500	0.599400	0.666174
C30	C	0.855600	0.604300	0.661500	0.666174
C31	C	0.493700	0.667300	0.734700	0.645043
C32	C	0.358400	0.730300	0.797900	0.004392
C33	C	0.379000	0.826200	0.755300	0.004392
C34	C	0.778500	0.355600	0.114100	-0.136165
C35	C	0.809300	0.396800	0.167100	-0.082042
C36	C	0.929900	0.404800	0.180900	-0.082042
C37	C	0.019900	0.378200	0.146500	-0.136165
C38	C	0.985800	0.339700	0.094000	-0.082042
C39	C	0.873700	0.328700	0.079400	-0.082042
C40	C	0.655200	0.351500	0.099400	0.666174
C41	C	0.144400	0.395700	0.161500	0.666174
C42	C	0.506300	0.332700	0.234700	0.645043
C43	C	0.641600	0.269700	0.297900	0.004392
C44	C	0.621000	0.173800	0.255300	0.004392
C45	C	0.355600	0.778500	0.135900	-0.136165
C46	C	0.396800	0.809300	0.082900	-0.082042
C47	C	0.404800	0.929900	0.069100	-0.082042
C48	C	0.378200	0.019900	0.103500	-0.136165
C49	C	0.339700	0.985800	0.156000	-0.082042
C50	C	0.328700	0.873700	0.170600	-0.082042
C51	C	0.351500	0.655200	0.150600	0.666174
C52	C	0.395700	0.144400	0.088500	0.666174
C53	C	0.332700	0.506300	0.015300	0.645043
C54	C	0.269700	0.641600	0.952100	0.004392
C55	C	0.173800	0.621000	0.994700	0.004392
C56	C	0.644400	0.221500	0.635900	-0.136165
C57	C	0.603200	0.190700	0.582900	-0.082042
C58	C	0.595200	0.070100	0.569100	-0.082042
C59	C	0.621800	0.980100	0.603500	-0.136165
C60	C	0.660300	0.014200	0.656000	-0.082042
C61	C	0.671300	0.126300	0.670600	-0.082042
C62	C	0.648500	0.344800	0.650600	0.666174
C63	C	0.604300	0.855600	0.588500	0.666174
C64	C	0.667300	0.493700	0.515300	0.645043
C65	C	0.730300	0.358400	0.452100	0.004392
C66	C	0.826200	0.379000	0.494700	0.004392
C67	C	0.778500	0.644400	0.385900	-0.136165
C68	C	0.809300	0.603200	0.332900	-0.082042
C69	C	0.929900	0.595200	0.319100	-0.082042
C70	C	0.019900	0.621800	0.353500	-0.136165
C71	C	0.985800	0.660300	0.406000	-0.082042
C72	C	0.873700	0.671300	0.420600	-0.082042
C73	C	0.655200	0.648500	0.400600	0.666174
C74	C	0.144400	0.604300	0.338500	0.666174
C75	C	0.506300	0.667300	0.265300	0.645043
C76	C	0.641600	0.730300	0.202100	0.004392
C77	C	0.621000	0.826200	0.244700	0.004392
C78	C	0.221500	0.355600	0.885900	-0.136165
C79	C	0.190700	0.396800	0.832900	-0.082042
C80	C	0.070100	0.404800	0.819100	-0.082042
C81	C	0.980100	0.378200	0.853500	-0.136165
C82	C	0.014200	0.339700	0.906000	-0.082042
C83	C	0.126300	0.328700	0.920600	-0.082042
C84	C	0.344800	0.351500	0.900600	0.666174
C85	C	0.855600	0.395700	0.838500	0.666174
C86	C	0.493700	0.332700	0.765300	0.645043
C87	C	0.358400	0.269700	0.702100	0.004392
C88	C	0.379000	0.173800	0.744700	0.004392
N1	N	0.627800	0.570100	0.026500	-0.363672
N2	N	0.776200	0.528600	0.971400	-0.363672
N3	N	0.372200	0.429900	0.526500	-0.363672
N4	N	0.223800	0.471400	0.471400	-0.363672
N5	N	0.429900	0.627800	0.776500	-0.363672
N6	N	0.471400	0.776200	0.721400	-0.363672
N7	N	0.570100	0.372200	0.276500	-0.363672
N8	N	0.528600	0.223800	0.221400	-0.363672
N9	N	0.372200	0.570100	0.973500	-0.363672
N10	N	0.223800	0.528600	0.028600	-0.363672
N11	N	0.627800	0.429900	0.473500	-0.363672
N12	N	0.776200	0.471400	0.528600	-0.363672
N13	N	0.570100	0.627800	0.223500	-0.363672
N14	N	0.528600	0.776200	0.278600	-0.363672
N15	N	0.429900	0.372200	0.723500	-0.363672
N16	N	0.471400	0.223800	0.778600	-0.363672
O1	O	0.709600	0.631000	0.807600	-0.599952
O2	O	0.594300	0.581200	0.876900	-0.599952
O3	O	0.601200	0.217900	0.875500	-0.599952
O4	O	0.596300	0.166700	0.961600	-0.599952
O5	O	0.599400	0.428100	0.962000	-0.620870
O6	O	0.290400	0.369000	0.307600	-0.599952
O7	O	0.405700	0.418800	0.376900	-0.599952
O8	O	0.398800	0.782100	0.375500	-0.599952
O9	O	0.403700	0.833300	0.461600	-0.599952
O10	O	0.400600	0.571900	0.462000	-0.620870
O11	O	0.369000	0.709600	0.557600	-0.599952
O12	O	0.418800	0.594300	0.626900	-0.599952
O13	O	0.782100	0.601200	0.625500	-0.599952
O14	O	0.833300	0.596300	0.711600	-0.599952
O15	O	0.571900	0.599400	0.712000	-0.620870
O16	O	0.631000	0.290400	0.057600	-0.599952
O17	O	0.581200	0.405700	0.126900	-0.599952
O18	O	0.217900	0.398800	0.125500	-0.599952
O19	O	0.166700	0.403700	0.211600	-0.599952
O20	O	0.428100	0.400600	0.212000	-0.620870
O21	O	0.290400	0.631000	0.192400	-0.599952
O22	O	0.405700	0.581200	0.123100	-0.599952
O23	O	0.398800	0.217900	0.124500	-0.599952
O24	O	0.403700	0.166700	0.038400	-0.599952
O25	O	0.400600	0.428100	0.038000	-0.620870
O26	O	0.709600	0.369000	0.692400	-0.599952
O27	O	0.594300	0.418800	0.623100	-0.599952
O28	O	0.601200	0.782100	0.624500	-0.599952
O29	O	0.596300	0.833300	0.538400	-0.599952
O30	O	0.599400	0.571900	0.538000	-0.620870
O31	O	0.631000	0.709600	0.442400	-0.599952
O32	O	0.581200	0.594300	0.373100	-0.599952
O33	O	0.217900	0.601200	0.374500	-0.599952
O34	O	0.166700	0.596300	0.288400	-0.599952
O35	O	0.428100	0.599400	0.288000	-0.620870
O36	O	0.369000	0.290400	0.942400	-0.599952
O37	O	0.418800	0.405700	0.873100	-0.599952
O38	O	0.782100	0.398800	0.874500	-0.599952
O39	O	0.833300	0.403700	0.788400	-0.599952
O40	O	0.571900	0.400600	0.788000	-0.620870
