data_ETEJIX_clean_PM
_symmetry_space_group_name_H-M	'P1'
_cell_length_a	10.534000
_cell_length_b	11.300000
_cell_length_c	12.661000
_cell_angle_alpha	101.900998
_cell_angle_beta	108.730000
_cell_angle_gamma	99.044000
_symmetry_Int_Tables_number 1

loop_
_symmetry_equiv_pos_as_xyz
'x,y,z'

loop_
_atom_site_label
_atom_site_type_symbol
_atom_site_fract_x
_atom_site_fract_y
_atom_site_fract_z
_atom_site_charge
La1	La	0.896800	0.455600	0.317680	2.164381
La2	La	0.103200	0.544400	0.682320	2.164381
H1	H	0.073900	0.877500	0.706600	0.395854
H2	H	0.738100	0.605800	0.744800	0.395854
H3	H	0.814100	0.086700	0.057300	0.392610
H4	H	0.985800	0.856500	0.336700	0.129300
H5	H	0.599700	0.437700	0.367700	0.129300
H6	H	0.926100	0.122500	0.293400	0.395854
H7	H	0.261900	0.394200	0.255200	0.395854
H8	H	0.185900	0.913300	0.942700	0.392610
H9	H	0.014200	0.143500	0.663300	0.129300
H10	H	0.400300	0.562300	0.632300	0.129300
C1	C	0.031900	0.970100	0.606300	0.315228
C2	C	0.022900	0.882700	0.505800	-0.224572
C3	C	0.991500	0.914700	0.402800	-0.139979
C4	C	0.041400	0.753700	0.507100	0.781745
C5	C	0.582000	0.551100	0.617700	0.327718
C6	C	0.643300	0.514400	0.537100	-0.227311
C7	C	0.559300	0.463200	0.421100	-0.134959
C8	C	0.793800	0.531100	0.573000	0.763850
C9	C	0.637500	0.018000	0.012500	0.339297
C10	C	0.593000	0.110600	0.073200	-0.229024
C11	C	0.454100	0.092200	0.059300	-0.046619
C12	C	0.695500	0.228900	0.149700	0.789016
C13	C	0.968100	0.029900	0.393700	0.315228
C14	C	0.977100	0.117300	0.494200	-0.224572
C15	C	0.008500	0.085300	0.597200	-0.139979
C16	C	0.958600	0.246300	0.492900	0.781745
C17	C	0.418000	0.448900	0.382300	0.327718
C18	C	0.356700	0.485600	0.462900	-0.227311
C19	C	0.440700	0.536800	0.578900	-0.134959
C20	C	0.206200	0.468900	0.427000	0.763850
C21	C	0.362500	0.982000	0.987500	0.339297
C22	C	0.407000	0.889400	0.926800	-0.229024
C23	C	0.545900	0.907800	0.940700	-0.046619
C24	C	0.304500	0.771100	0.850300	0.789016
O1	O	0.016000	0.677200	0.412500	-0.713613
O2	O	0.081300	0.731200	0.605000	-0.713613
O3	O	0.062400	0.948300	0.711500	-0.533473
O4	O	0.849300	0.506500	0.498900	-0.827855
O5	O	0.867000	0.568700	0.679700	-0.649435
O6	O	0.655900	0.601200	0.732400	-0.533473
O7	O	0.814400	0.251500	0.148900	-0.711381
O8	O	0.655500	0.305900	0.213500	-0.711381
O9	O	0.762300	0.019600	0.015500	-0.527467
O10	O	0.984000	0.322800	0.587500	-0.713613
O11	O	0.918700	0.268800	0.395000	-0.713613
O12	O	0.937600	0.051700	0.288500	-0.533473
O13	O	0.150700	0.493500	0.501100	-0.827855
O14	O	0.133000	0.431300	0.320300	-0.649435
O15	O	0.344100	0.398800	0.267600	-0.533473
O16	O	0.185600	0.748500	0.851100	-0.711381
O17	O	0.344500	0.694100	0.786500	-0.711381
O18	O	0.237700	0.980400	0.984500	-0.527467
