data_EVOMOR01_clean_PM
_symmetry_space_group_name_H-M	'P1'
_cell_length_a	8.852000
_cell_length_b	11.686000
_cell_length_c	17.847000
_cell_angle_alpha	90.000000
_cell_angle_beta	90.000000
_cell_angle_gamma	99.669999
_symmetry_Int_Tables_number 1

loop_
_symmetry_equiv_pos_as_xyz
'x,y,z'

loop_
_atom_site_label
_atom_site_type_symbol
_atom_site_fract_x
_atom_site_fract_y
_atom_site_fract_z
_atom_site_charge
Mn1	Mn	0.794120	0.381270	0.170150	0.985326
Mn2	Mn	0.705880	0.618730	0.670150	0.985326
Mn3	Mn	0.205880	0.618730	0.829850	0.985326
Mn4	Mn	0.294120	0.381270	0.329850	0.985326
H1	H	0.980900	0.187000	0.235700	0.077310
H2	H	0.983700	0.992700	0.237100	0.126985
H3	H	0.616100	0.948400	0.106200	0.126985
H4	H	0.623800	0.144100	0.108200	0.077310
H5	H	0.951000	0.615200	0.246900	0.077310
H6	H	0.958300	0.810800	0.250200	0.126985
H7	H	0.635800	0.774700	0.091700	0.126985
H8	H	0.637900	0.578900	0.093100	0.077310
H9	H	0.719000	0.386200	0.881700	0.114935
H10	H	0.885700	0.401400	0.914400	0.114935
H11	H	0.883800	0.591900	0.943900	0.117266
H12	H	0.707100	0.578800	0.928400	0.117266
H13	H	0.519100	0.813000	0.735700	0.077310
H14	H	0.516300	0.007300	0.737100	0.126985
H15	H	0.883900	0.051600	0.606200	0.126985
H16	H	0.876200	0.855900	0.608200	0.077310
H17	H	0.549000	0.384800	0.746900	0.077310
H18	H	0.541700	0.189200	0.750200	0.126985
H19	H	0.864200	0.225300	0.591700	0.126985
H20	H	0.862100	0.421100	0.593100	0.077310
H21	H	0.781000	0.613800	0.381700	0.114935
H22	H	0.614300	0.598600	0.414400	0.114935
H23	H	0.616200	0.408100	0.443900	0.117266
H24	H	0.792900	0.421200	0.428400	0.117266
H25	H	0.019100	0.813000	0.764300	0.077310
H26	H	0.016300	0.007300	0.762900	0.126985
H27	H	0.383900	0.051600	0.893800	0.126985
H28	H	0.376200	0.855900	0.891800	0.077310
H29	H	0.049000	0.384800	0.753100	0.077310
H30	H	0.041700	0.189200	0.749800	0.126985
H31	H	0.364200	0.225300	0.908300	0.126985
H32	H	0.362100	0.421100	0.906900	0.077310
H33	H	0.281000	0.613800	0.118300	0.114935
H34	H	0.114300	0.598600	0.085600	0.114935
H35	H	0.116200	0.408100	0.056100	0.117266
H36	H	0.292900	0.421200	0.071600	0.117266
H37	H	0.480900	0.187000	0.264300	0.077310
H38	H	0.483700	0.992700	0.262900	0.126985
H39	H	0.116100	0.948400	0.393800	0.126985
H40	H	0.123800	0.144100	0.391800	0.077310
H41	H	0.451000	0.615200	0.253100	0.077310
H42	H	0.458300	0.810800	0.249800	0.126985
H43	H	0.135800	0.774700	0.408300	0.126985
H44	H	0.137900	0.578900	0.406900	0.077310
H45	H	0.219000	0.386200	0.618300	0.114935
H46	H	0.385700	0.401400	0.585600	0.114935
H47	H	0.383800	0.591900	0.556100	0.117266
H48	H	0.207100	0.578800	0.571600	0.117266
C1	C	0.905500	0.138400	0.209200	0.183490
C2	C	0.907900	0.021100	0.210300	-0.200706
C3	C	0.799600	0.945700	0.172160	0.086282
C4	C	0.692300	0.995100	0.133400	-0.200706
C5	C	0.697700	0.113300	0.135000	0.183490
C6	C	0.886600	0.647700	0.215100	0.183490
C7	C	0.891400	0.765800	0.217400	-0.200706
C8	C	0.797100	0.818100	0.171150	0.086282
C9	C	0.701500	0.744600	0.124100	-0.200706
C10	C	0.703500	0.626500	0.125100	0.183490
C11	C	0.721200	0.382700	0.997070	0.709113
C12	C	0.785900	0.423900	0.920700	-0.269963
C13	C	0.801100	0.554000	0.912280	-0.278101
C14	C	0.833600	0.589000	0.831670	0.722637
C15	C	0.594500	0.861600	0.709200	0.183490
C16	C	0.592100	0.978900	0.710300	-0.200706
C17	C	0.700400	0.054300	0.672160	0.086282
C18	C	0.807700	0.004900	0.633400	-0.200706
C19	C	0.802300	0.886700	0.635000	0.183490
C20	C	0.613400	0.352300	0.715100	0.183490
C21	C	0.608600	0.234200	0.717400	-0.200706
C22	C	0.702900	0.181900	0.671150	0.086282
C23	C	0.798500	0.255400	0.624100	-0.200706
C24	C	0.796500	0.373500	0.625100	0.183490
C25	C	0.778800	0.617300	0.497070	0.709113
C26	C	0.714100	0.576100	0.420700	-0.269963
C27	C	0.698900	0.446000	0.412280	-0.278101
C28	C	0.666400	0.411000	0.331670	0.722637
C29	C	0.094500	0.861600	0.790800	0.183490
C30	C	0.092100	0.978900	0.789700	-0.200706
C31	C	0.200400	0.054300	0.827840	0.086282
C32	C	0.307700	0.004900	0.866600	-0.200706
C33	C	0.302300	0.886700	0.865000	0.183490
C34	C	0.113400	0.352300	0.784900	0.183490
C35	C	0.108600	0.234200	0.782600	-0.200706
C36	C	0.202900	0.181900	0.828850	0.086282
C37	C	0.298500	0.255400	0.875900	-0.200706
C38	C	0.296500	0.373500	0.874900	0.183490
C39	C	0.278800	0.617300	0.002930	0.709113
C40	C	0.214100	0.576100	0.079300	-0.269963
C41	C	0.198900	0.446000	0.087720	-0.278101
C42	C	0.166400	0.411000	0.168330	0.722637
C43	C	0.405500	0.138400	0.290800	0.183490
C44	C	0.407900	0.021100	0.289700	-0.200706
C45	C	0.299600	0.945700	0.327840	0.086282
C46	C	0.192300	0.995100	0.366600	-0.200706
C47	C	0.197700	0.113300	0.365000	0.183490
C48	C	0.386600	0.647700	0.284900	0.183490
C49	C	0.391400	0.765800	0.282600	-0.200706
C50	C	0.297100	0.818100	0.328850	0.086282
C51	C	0.201500	0.744600	0.375900	-0.200706
C52	C	0.203500	0.626500	0.374900	0.183490
C53	C	0.221200	0.382700	0.502930	0.709113
C54	C	0.285900	0.423900	0.579300	-0.269963
C55	C	0.301100	0.554000	0.587720	-0.278101
C56	C	0.333600	0.589000	0.668330	0.722637
N1	N	0.801700	0.185900	0.172370	-0.362028
N2	N	0.794800	0.577800	0.169870	-0.362028
N3	N	0.698300	0.814100	0.672370	-0.362028
N4	N	0.705200	0.422200	0.669870	-0.362028
N5	N	0.198300	0.814100	0.827630	-0.362028
N6	N	0.205200	0.422200	0.830130	-0.362028
N7	N	0.301700	0.185900	0.327630	-0.362028
N8	N	0.294800	0.577800	0.330130	-0.362028
O1	O	0.816200	0.385800	0.049560	-0.645942
O2	O	0.581700	0.350900	0.002550	-0.631888
O3	O	0.725700	0.612100	0.792310	-0.626205
O4	O	0.965400	0.588000	0.806340	-0.626205
O5	O	0.683800	0.614200	0.549560	-0.645942
O6	O	0.918300	0.649100	0.502550	-0.631888
O7	O	0.774300	0.387900	0.292310	-0.626205
O8	O	0.534600	0.412000	0.306340	-0.626205
O9	O	0.183800	0.614200	0.950440	-0.645942
O10	O	0.418300	0.649100	0.997450	-0.631888
O11	O	0.274300	0.387900	0.207690	-0.626205
O12	O	0.034600	0.412000	0.193660	-0.626205
O13	O	0.316200	0.385800	0.450440	-0.645942
O14	O	0.081700	0.350900	0.497450	-0.631888
O15	O	0.225700	0.612100	0.707690	-0.626205
O16	O	0.465400	0.588000	0.693660	-0.626205
