data_FALQOA_clean_PM
_symmetry_space_group_name_H-M	'P1'
_cell_length_a	7.381700
_cell_length_b	13.631900
_cell_length_c	13.631900
_cell_angle_alpha	119.999999
_cell_angle_beta	90.000000
_cell_angle_gamma	90.000000
_symmetry_Int_Tables_number 1

loop_
_symmetry_equiv_pos_as_xyz
'x,y,z'

loop_
_atom_site_label
_atom_site_type_symbol
_atom_site_fract_x
_atom_site_fract_y
_atom_site_fract_z
_atom_site_charge
Nd1	Nd	0.339920	0.333330	0.666660	2.245970
Nd2	Nd	0.660080	0.666670	0.333340	2.245970
Cu1	Cu	0.000000	0.500000	0.500000	0.749629
Cu2	Cu	0.000000	0.000000	0.500000	0.749629
Cu3	Cu	0.000000	0.500000	0.000000	0.749629
H1	H	0.860200	0.354300	0.325200	0.258107
H2	H	0.952100	0.204400	0.349200	0.093664
H3	H	0.766600	0.269500	0.451700	0.091786
H4	H	0.642400	0.214400	0.280500	0.119210
H5	H	0.539700	0.330300	0.330900	0.119210
H6	H	0.495100	0.246200	0.374500	0.119210
H7	H	0.997400	0.209700	0.208200	0.119210
H8	H	0.094600	0.128300	0.241500	0.119210
H9	H	0.199500	0.231800	0.249000	0.119210
H10	H	0.860200	0.970900	0.645700	0.258107
H11	H	0.952100	0.144800	0.795600	0.093664
H12	H	0.766600	0.182200	0.730500	0.091786
H13	H	0.642400	0.066100	0.785600	0.119210
H14	H	0.539700	0.000600	0.669700	0.119210
H15	H	0.495100	0.128300	0.753800	0.119210
H16	H	0.997400	0.998500	0.790300	0.119210
H17	H	0.094600	0.113200	0.871700	0.119210
H18	H	0.199500	0.017200	0.768200	0.119210
H19	H	0.860200	0.674800	0.029100	0.258107
H20	H	0.952100	0.650800	0.855200	0.093664
H21	H	0.766600	0.548300	0.817800	0.091786
H22	H	0.642400	0.719500	0.933900	0.119210
H23	H	0.539700	0.669100	0.999400	0.119210
H24	H	0.495100	0.625500	0.871700	0.119210
H25	H	0.997400	0.791800	0.001500	0.119210
H26	H	0.094600	0.758500	0.886800	0.119210
H27	H	0.199500	0.751000	0.982800	0.119210
H28	H	0.139800	0.645700	0.674800	0.258107
H29	H	0.047900	0.795600	0.650800	0.093664
H30	H	0.233400	0.730500	0.548300	0.091786
H31	H	0.357600	0.785600	0.719500	0.119210
H32	H	0.460300	0.669700	0.669100	0.119210
H33	H	0.504900	0.753800	0.625500	0.119210
H34	H	0.002600	0.790300	0.791800	0.119210
H35	H	0.905400	0.871700	0.758500	0.119210
H36	H	0.800500	0.768200	0.751000	0.119210
H37	H	0.139800	0.029100	0.354300	0.258107
H38	H	0.047900	0.855200	0.204400	0.093664
H39	H	0.233400	0.817800	0.269500	0.091786
H40	H	0.357600	0.933900	0.214400	0.119210
H41	H	0.460300	0.999400	0.330300	0.119210
H42	H	0.504900	0.871700	0.246200	0.119210
H43	H	0.002600	0.001500	0.209700	0.119210
H44	H	0.905400	0.886800	0.128300	0.119210
H45	H	0.800500	0.982800	0.231800	0.119210
H46	H	0.139800	0.325200	0.970900	0.258107
H47	H	0.047900	0.349200	0.144800	0.093664
H48	H	0.233400	0.451700	0.182200	0.091786
H49	H	0.357600	0.280500	0.066100	0.119210
H50	H	0.460300	0.330900	0.000600	0.119210
H51	H	0.504900	0.374500	0.128300	0.119210
H52	H	0.002600	0.208200	0.998500	0.119210
H53	H	0.905400	0.241500	0.113200	0.119210
H54	H	0.800500	0.249000	0.017200	0.119210
C1	C	0.138300	0.275700	0.455200	0.638154
C2	C	0.035300	0.261700	0.351900	0.036139
C3	C	0.730000	0.329400	0.436000	0.051361
C4	C	0.684300	0.428500	0.551500	0.678412
C5	C	0.589500	0.275300	0.347700	-0.341073
C6	C	0.084000	0.205400	0.258500	-0.340337
C7	C	0.138300	0.179500	0.724300	0.638154
C8	C	0.035300	0.090200	0.738300	0.036139
C9	C	0.730000	0.106600	0.670600	0.051361
C10	C	0.684300	0.123000	0.571500	0.678412
C11	C	0.589500	0.072400	0.724700	-0.341073
C12	C	0.084000	0.053100	0.794600	-0.340337
C13	C	0.138300	0.544800	0.820500	0.638154
C14	C	0.035300	0.648100	0.909800	0.036139
C15	C	0.730000	0.564000	0.893400	0.051361
C16	C	0.684300	0.448500	0.877000	0.678412
C17	C	0.589500	0.652300	0.927600	-0.341073
C18	C	0.084000	0.741500	0.946900	-0.340337
C19	C	0.861700	0.724300	0.544800	0.638154
C20	C	0.964700	0.738300	0.648100	0.036139
C21	C	0.270000	0.670600	0.564000	0.051361
C22	C	0.315700	0.571500	0.448500	0.678412
C23	C	0.410500	0.724700	0.652300	-0.341073
C24	C	0.916000	0.794600	0.741500	-0.340337
C25	C	0.861700	0.820500	0.275700	0.638154
C26	C	0.964700	0.909800	0.261700	0.036139
C27	C	0.270000	0.893400	0.329400	0.051361
C28	C	0.315700	0.877000	0.428500	0.678412
C29	C	0.410500	0.927600	0.275300	-0.341073
C30	C	0.916000	0.946900	0.205400	-0.340337
C31	C	0.861700	0.455200	0.179500	0.638154
C32	C	0.964700	0.351900	0.090200	0.036139
C33	C	0.270000	0.436000	0.106600	0.051361
C34	C	0.315700	0.551500	0.123000	0.678412
C35	C	0.410500	0.347700	0.072400	-0.341073
C36	C	0.916000	0.258500	0.053100	-0.340337
N1	N	0.894000	0.350260	0.387320	-0.388148
N2	N	0.894000	0.037060	0.649740	-0.388148
N3	N	0.894000	0.612680	0.962940	-0.388148
N4	N	0.106000	0.649740	0.612680	-0.388148
N5	N	0.106000	0.962940	0.350260	-0.388148
N6	N	0.106000	0.387320	0.037060	-0.388148
O1	O	0.242800	0.199660	0.444390	-0.688288
O2	O	0.121100	0.365860	0.547670	-0.688288
O3	O	0.787300	0.514280	0.592930	-0.549723
O4	O	0.549600	0.419600	0.600700	-0.690501
O5	O	0.242800	0.244730	0.800340	-0.688288
O6	O	0.121100	0.181810	0.634140	-0.688288
O7	O	0.787300	0.078650	0.485720	-0.549723
O8	O	0.549600	0.181100	0.580400	-0.690501
O9	O	0.242800	0.555610	0.755270	-0.688288
O10	O	0.121100	0.452330	0.818190	-0.688288
O11	O	0.787300	0.407070	0.921350	-0.549723
O12	O	0.549600	0.399300	0.818900	-0.690501
O13	O	0.757200	0.800340	0.555610	-0.688288
O14	O	0.878900	0.634140	0.452330	-0.688288
O15	O	0.212700	0.485720	0.407070	-0.549723
O16	O	0.450400	0.580400	0.399300	-0.690501
O17	O	0.757200	0.755270	0.199660	-0.688288
O18	O	0.878900	0.818190	0.365860	-0.688288
O19	O	0.212700	0.921350	0.514280	-0.549723
O20	O	0.450400	0.818900	0.419600	-0.690501
O21	O	0.757200	0.444390	0.244730	-0.688288
O22	O	0.878900	0.547670	0.181810	-0.688288
O23	O	0.212700	0.592930	0.078650	-0.549723
O24	O	0.450400	0.600700	0.181100	-0.690501
