data_FECKAA_clean_PM
_symmetry_space_group_name_H-M	'P1'
_cell_length_a	10.917500
_cell_length_b	21.469900
_cell_length_c	21.469900
_cell_angle_alpha	117.187501
_cell_angle_beta	99.758801
_cell_angle_gamma	99.758799
_symmetry_Int_Tables_number 1

loop_
_symmetry_equiv_pos_as_xyz
'x,y,z'

loop_
_atom_site_label
_atom_site_type_symbol
_atom_site_fract_x
_atom_site_fract_y
_atom_site_fract_z
_atom_site_charge
Zn1	Zn	0.276280	0.000160	0.913780	1.091896
Zn2	Zn	0.362500	0.086220	0.086380	1.091896
Zn3	Zn	0.276120	0.913620	0.999840	1.091896
Zn4	Zn	0.539270	0.000000	0.000000	1.096928
H1	H	0.842100	0.000000	0.756500	0.103224
H2	H	0.488300	0.993500	0.654100	0.103224
H3	H	0.411700	0.999600	0.751500	0.098186
H4	H	0.765500	0.006300	0.854000	0.098186
H5	H	0.687400	0.896300	0.572800	0.129145
H6	H	0.971100	0.129300	0.552800	0.099967
H7	H	0.989400	0.242600	0.652800	0.111503
H8	H	0.783100	0.140600	0.736800	0.114633
H9	H	0.177700	0.998200	0.429200	0.129145
H10	H	0.668700	0.009300	0.443300	0.101131
H11	H	0.550700	0.011400	0.342800	0.116239
H12	H	0.862200	0.004600	0.263200	0.119449
H13	H	0.029700	0.888100	0.243800	0.103224
H14	H	0.152600	0.109100	0.358500	0.103224
H15	H	0.252400	0.109000	0.270100	0.098186
H16	H	0.129600	0.888100	0.155600	0.098186
H17	H	0.234700	0.009500	0.604200	0.061347
H18	H	0.177100	0.939700	0.522200	0.061347
H19	H	0.557900	0.975400	0.606800	0.096567
H20	H	0.519700	0.087500	0.677100	0.097249
H21	H	0.359300	0.123400	0.625300	0.101023
H22	H	0.275400	0.935200	0.433100	0.101023
H23	H	0.435700	0.899200	0.484700	0.097249
H24	H	0.917400	0.895500	0.425400	0.061347
H25	H	0.982500	0.874200	0.482400	0.061347
H26	H	0.021100	0.782600	0.364600	0.101023
H27	H	0.687500	0.769900	0.422900	0.101023
H28	H	0.781100	0.743000	0.510700	0.097249
H29	H	0.994800	0.736100	0.525700	0.096567
H30	H	0.114700	0.755700	0.452400	0.097249
H31	H	0.085600	0.243500	0.243500	0.103224
H32	H	0.834200	0.345900	0.339400	0.103224
H33	H	0.660200	0.248500	0.248100	0.098186
H34	H	0.911500	0.146000	0.152300	0.098186
H35	H	0.114600	0.427200	0.323500	0.129145
H36	H	0.418300	0.447200	0.576500	0.099967
H37	H	0.336600	0.347200	0.589800	0.111503
H38	H	0.046300	0.263200	0.403800	0.114633
H39	H	0.748500	0.570800	0.569000	0.129145
H40	H	0.225400	0.556700	0.566000	0.101131
H41	H	0.207900	0.657200	0.668600	0.116239
H42	H	0.599000	0.736800	0.741400	0.119449
H43	H	0.785900	0.756200	0.644300	0.103224
H44	H	0.794100	0.641500	0.750600	0.103224
H45	H	0.982300	0.729900	0.838900	0.098186
H46	H	0.974000	0.844400	0.732500	0.098186
H47	H	0.630500	0.395800	0.405300	0.061347
H48	H	0.654900	0.477800	0.417500	0.061347
H49	H	0.951100	0.393200	0.368600	0.096567
H50	H	0.842600	0.322900	0.410400	0.097249
H51	H	0.734000	0.374700	0.498100	0.101023
H52	H	0.842300	0.566900	0.502100	0.101023
H53	H	0.951000	0.515300	0.414500	0.097249
H54	H	0.492000	0.574600	0.470100	0.061347
H55	H	0.500100	0.517600	0.391800	0.061347
H56	H	0.656500	0.635400	0.418000	0.101023
H57	H	0.264600	0.577100	0.347000	0.101023
H58	H	0.270400	0.489300	0.232300	0.097249
H59	H	0.469100	0.474300	0.210400	0.096567
H60	H	0.662300	0.547600	0.303300	0.097249
H61	H	0.842100	0.756500	0.000000	0.103224
H62	H	0.494800	0.660600	0.006500	0.103224
H63	H	0.412100	0.751900	0.000400	0.098186
H64	H	0.759200	0.847700	0.993700	0.098186
H65	H	0.791100	0.676500	0.103700	0.129145
H66	H	0.841800	0.423500	0.870700	0.099967
H67	H	0.746800	0.410200	0.757400	0.111503
H68	H	0.642500	0.596200	0.859400	0.114633
H69	H	0.179500	0.431000	0.001800	0.129145
H70	H	0.659400	0.434000	0.990700	0.101131
H71	H	0.539300	0.331400	0.988600	0.116239
H72	H	0.857600	0.258600	0.995400	0.119449
H73	H	0.141600	0.355700	0.111900	0.103224
H74	H	0.043500	0.249400	0.890900	0.103224
H75	H	0.143400	0.161100	0.891000	0.098186
H76	H	0.241500	0.267500	0.111900	0.098186
H77	H	0.225200	0.594700	0.990500	0.061347
H78	H	0.237400	0.582500	0.060300	0.061347
H79	H	0.582500	0.631400	0.024600	0.096567
H80	H	0.432200	0.589600	0.912500	0.097249
H81	H	0.235900	0.501900	0.876600	0.101023
H82	H	0.340200	0.497900	0.064800	0.101023
H83	H	0.536500	0.585500	0.100800	0.097249
H84	H	0.021900	0.529900	0.104500	0.061347
H85	H	0.108300	0.608200	0.125800	0.061347
H86	H	0.238500	0.582000	0.217400	0.101023
H87	H	0.917600	0.653000	0.230100	0.101023
H88	H	0.038100	0.767700	0.257000	0.097249
H89	H	0.258700	0.789600	0.263900	0.096567
H90	H	0.359000	0.696700	0.244300	0.097249
C1	C	0.755000	0.000000	0.755000	-0.150341
C2	C	0.672000	0.996000	0.696000	0.041901
C3	C	0.544600	0.996100	0.694700	-0.150341
C4	C	0.499100	0.999700	0.752600	-0.033247
C5	C	0.581200	0.003600	0.812000	-0.149620
C6	C	0.710000	0.004000	0.814000	-0.033247
C7	C	0.505300	0.001000	0.868900	0.700655
C8	C	0.254000	0.999000	0.159000	0.691717
C9	C	0.856000	0.001000	0.526000	-0.057636
C10	C	0.789000	0.937000	0.521000	0.221604
C11	C	0.734000	0.941000	0.577000	-0.252935
C12	C	0.744000	0.008000	0.636000	0.039538
C13	C	0.811000	0.072000	0.641000	0.024828
C14	C	0.866400	0.068400	0.585800	0.032933
C15	C	0.933000	0.132000	0.590000	-0.083742
C16	C	0.944000	0.199000	0.649000	-0.093760
C17	C	0.888000	0.203000	0.705000	-0.033080
C18	C	0.822000	0.139000	0.700000	-0.124856
C19	C	0.905200	0.004200	0.472400	-0.057636
C20	C	0.033200	0.001200	0.478400	0.221604
C21	C	0.091000	0.000000	0.425000	-0.252935
C22	C	0.020800	0.001800	0.365600	0.038715
C23	C	0.892500	0.004200	0.359300	0.022732
C24	C	0.836000	0.006000	0.413000	0.031147
C25	C	0.708000	0.009000	0.407000	-0.094532
C26	C	0.638000	0.009000	0.347000	-0.156884
C27	C	0.695000	0.008000	0.294000	0.129501
C28	C	0.822700	0.004700	0.299400	-0.193691
C29	C	0.075000	0.932900	0.249100	-0.150341
C30	C	0.082400	0.999400	0.309800	0.041901
C31	C	0.147800	0.064800	0.317600	-0.150341
C32	C	0.207000	0.064200	0.264800	-0.033247
C33	C	0.200000	0.998500	0.204500	-0.143397
C34	C	0.134500	0.932800	0.196700	-0.033247
C35	C	0.202000	0.993000	0.552000	0.078669
C36	C	0.494000	0.991000	0.587000	-0.080605
C37	C	0.470000	0.056000	0.627000	-0.087659
C38	C	0.379000	0.079000	0.598000	-0.107605
C39	C	0.302000	0.033000	0.524000	0.005007
C40	C	0.325000	0.966000	0.483000	-0.107605
C41	C	0.420000	0.945000	0.513000	-0.087659
C42	C	0.899000	0.867000	0.450000	0.078669
C43	C	0.970000	0.775000	0.395000	-0.107605
C44	C	0.848000	0.779000	0.385000	0.005007
C45	C	0.774000	0.766000	0.428000	-0.107605
C46	C	0.830000	0.750000	0.480000	-0.087659
C47	C	0.953000	0.748000	0.491000	-0.080605
C48	C	0.028000	0.759000	0.447000	-0.087659
C49	C	0.000000	0.245000	0.245000	-0.150341
C50	C	0.976000	0.304000	0.300000	0.041901
C51	C	0.849900	0.305300	0.301400	-0.150341
C52	C	0.746500	0.247400	0.247100	-0.033247
C53	C	0.769200	0.188000	0.191600	-0.149620
C54	C	0.896000	0.186000	0.190000	-0.033247
C55	C	0.636400	0.131100	0.132100	0.700655
C56	C	0.095000	0.841000	0.840000	0.691717
C57	C	0.330000	0.474000	0.475000	-0.057636
C58	C	0.268000	0.479000	0.416000	0.221604
C59	C	0.157000	0.423000	0.364000	-0.252935
C60	C	0.108000	0.364000	0.372000	0.039538
C61	C	0.170000	0.359000	0.431000	0.024828
C62	C	0.280600	0.414200	0.482600	0.032933
C63	C	0.343000	0.410000	0.542000	-0.083742
C64	C	0.295000	0.351000	0.550000	-0.093760
C65	C	0.183000	0.295000	0.498000	-0.033080
C66	C	0.122000	0.300000	0.439000	-0.124856
C67	C	0.432800	0.527600	0.531800	-0.057636
C68	C	0.554800	0.521600	0.522800	0.221604
C69	C	0.666000	0.575000	0.575000	-0.252935
C70	C	0.655200	0.634400	0.636200	0.038715
C71	C	0.533200	0.640700	0.644900	0.022732
C72	C	0.423000	0.587000	0.593000	0.031147
C73	C	0.301000	0.593000	0.602000	-0.094532
C74	C	0.291000	0.653000	0.662000	-0.156884
C75	C	0.401000	0.706000	0.714000	0.129501
C76	C	0.523300	0.700600	0.705300	-0.193691
C77	C	0.825900	0.750900	0.683800	-0.150341
C78	C	0.772600	0.690200	0.689600	0.041901
C79	C	0.830200	0.682400	0.747200	-0.150341
C80	C	0.942200	0.735200	0.799400	-0.033247
C81	C	0.995500	0.795500	0.794000	-0.143397
C82	C	0.937800	0.803300	0.736100	-0.033247
C83	C	0.650000	0.448000	0.441000	0.078669
C84	C	0.907000	0.413000	0.404000	-0.080605
C85	C	0.843000	0.373000	0.429000	-0.087659
C86	C	0.781000	0.402000	0.481000	-0.107605
C87	C	0.778000	0.476000	0.509000	0.005007
C88	C	0.842000	0.517000	0.483000	-0.107605
C89	C	0.907000	0.487000	0.432000	-0.087659
C90	C	0.449000	0.550000	0.417000	0.078669
C91	C	0.575000	0.605000	0.380000	-0.107605
C92	C	0.463000	0.615000	0.394000	0.005007
C93	C	0.346000	0.572000	0.338000	-0.107605
C94	C	0.350000	0.520000	0.270000	-0.087659
C95	C	0.462000	0.509000	0.257000	-0.080605
C96	C	0.581000	0.553000	0.312000	-0.087659
C97	C	0.755000	0.755000	0.000000	-0.150341
C98	C	0.676000	0.700000	0.004000	0.041901
C99	C	0.548500	0.698600	0.003900	-0.150341
C100	C	0.499400	0.752900	0.000300	-0.033247
C101	C	0.577600	0.808400	0.996400	-0.149620
C102	C	0.706000	0.810000	0.996000	-0.033247
C103	C	0.504300	0.867900	0.999000	0.700655
C104	C	0.255000	0.160000	0.001000	0.691717
C105	C	0.855000	0.525000	0.999000	-0.057636
C106	C	0.852000	0.584000	0.063000	0.221604
C107	C	0.793000	0.636000	0.059000	-0.252935
C108	C	0.736000	0.628000	0.992000	0.039538
C109	C	0.739000	0.569000	0.928000	0.024828
C110	C	0.798000	0.517400	0.931600	0.032933
C111	C	0.801000	0.458000	0.868000	-0.083742
C112	C	0.745000	0.450000	0.801000	-0.093760
C113	C	0.685000	0.502000	0.797000	-0.033080
C114	C	0.683000	0.561000	0.861000	-0.124856
C115	C	0.901000	0.468200	0.995800	-0.057636
C116	C	0.032000	0.477200	0.998800	0.221604
C117	C	0.091000	0.425000	0.000000	-0.252935
C118	C	0.019000	0.363800	0.998200	0.038715
C119	C	0.888300	0.355100	0.995800	0.022732
C120	C	0.830000	0.407000	0.994000	0.031147
C121	C	0.699000	0.398000	0.991000	-0.094532
C122	C	0.629000	0.338000	0.991000	-0.156884
C123	C	0.687000	0.286000	0.992000	0.129501
C124	C	0.818000	0.294700	0.995300	-0.193691
C125	C	0.142100	0.316200	0.067100	-0.150341
C126	C	0.083000	0.310400	0.000600	0.041901
C127	C	0.083000	0.252800	0.935200	-0.150341
C128	C	0.142800	0.200600	0.935800	-0.033247
C129	C	0.201500	0.206000	0.001500	-0.143397
C130	C	0.201700	0.263900	0.067200	-0.033247
C131	C	0.209000	0.559000	0.007000	0.078669
C132	C	0.503000	0.596000	0.009000	-0.080605
C133	C	0.414000	0.571000	0.944000	-0.087659
C134	C	0.300000	0.519000	0.921000	-0.107605
C135	C	0.269000	0.491000	0.967000	0.005007
C136	C	0.359000	0.517000	0.034000	-0.107605
C137	C	0.475000	0.568000	0.055000	-0.087659
C138	C	0.032000	0.583000	0.133000	0.078669
C139	C	0.195000	0.620000	0.225000	-0.107605
C140	C	0.069000	0.606000	0.221000	0.005007
C141	C	0.008000	0.662000	0.234000	-0.107605
C142	C	0.080000	0.730000	0.250000	-0.087659
C143	C	0.205000	0.743000	0.252000	-0.080605
C144	C	0.269000	0.688000	0.241000	-0.087659
Cl1	Cl	0.578000	0.995000	0.205000	-0.101395
Cl2	Cl	0.373000	0.795000	0.790000	-0.101395
Cl3	Cl	0.583000	0.210000	0.005000	-0.101395
O1	O	0.398200	0.000300	0.857300	-0.614066
O2	O	0.585400	0.999500	0.918700	-0.637681
O3	O	0.249300	0.101600	0.948300	-0.611212
O4	O	0.301800	0.154400	0.053000	-0.611212
O5	O	0.116000	0.018000	0.539000	-0.255243
O6	O	0.829000	0.892000	0.488000	-0.255243
O7	O	0.540900	0.142700	0.143000	-0.614066
O8	O	0.666700	0.081300	0.080800	-0.637681
O9	O	0.301000	0.051700	0.153300	-0.611212
O10	O	0.248800	0.947000	0.101400	-0.611212
O11	O	0.577000	0.461000	0.479000	-0.255243
O12	O	0.341000	0.512000	0.404000	-0.255243
O13	O	0.397900	0.857000	0.999700	-0.614066
O14	O	0.585900	0.919200	0.000500	-0.637681
O15	O	0.147700	0.846700	0.898400	-0.611212
O16	O	0.147400	0.898600	0.845600	-0.611212
O17	O	0.098000	0.521000	0.982000	-0.255243
O18	O	0.937000	0.596000	0.108000	-0.255243
O19	O	0.364670	0.000000	0.000000	-1.094273
