data_FELWIE_clean_PM
_symmetry_space_group_name_H-M	'P1'
_cell_length_a	18.675900
_cell_length_b	18.675900
_cell_length_c	18.675900
_cell_angle_alpha	59.999999
_cell_angle_beta	60.000000
_cell_angle_gamma	59.999999
_symmetry_Int_Tables_number 1

loop_
_symmetry_equiv_pos_as_xyz
'x,y,z'

loop_
_atom_site_label
_atom_site_type_symbol
_atom_site_fract_x
_atom_site_fract_y
_atom_site_fract_z
_atom_site_charge
Ca1	Ca	0.500000	0.500000	0.500000	1.459922
Ca2	Ca	0.000000	0.000000	0.500000	1.459922
Ca3	Ca	0.000000	0.500000	0.000000	1.459922
Ca4	Ca	0.000000	0.500000	0.500000	1.459922
Ca5	Ca	0.500000	0.500000	0.000000	1.459922
Ca6	Ca	0.000000	0.000000	0.000000	1.459922
Ca7	Ca	0.500000	0.000000	0.500000	1.459922
Ca8	Ca	0.500000	0.000000	0.000000	1.459922
Tm1	Tm	0.750000	0.250000	0.250000	2.060283
Tm2	Tm	0.750000	0.250000	0.750000	2.060283
Tm3	Tm	0.750000	0.750000	0.250000	2.060283
Tm4	Tm	0.250000	0.250000	0.250000	2.060283
Tm5	Tm	0.250000	0.750000	0.750000	2.060283
Tm6	Tm	0.250000	0.750000	0.250000	2.060283
Tm7	Tm	0.250000	0.250000	0.750000	2.060283
Tm8	Tm	0.750000	0.750000	0.750000	2.060283
H1	H	0.516500	0.416300	0.344100	0.110239
H2	H	0.577500	0.473500	0.294300	0.110239
H3	H	0.916300	0.016500	0.723100	0.110239
H4	H	0.973500	0.077500	0.654700	0.110239
H5	H	0.844100	0.723100	0.016500	0.110239
H6	H	0.794300	0.654700	0.077500	0.110239
H7	H	0.223100	0.344100	0.416300	0.110239
H8	H	0.154700	0.294300	0.473500	0.110239
H9	H	0.516500	0.344100	0.723100	0.110239
H10	H	0.577500	0.294300	0.654700	0.110239
H11	H	0.916300	0.723100	0.344100	0.110239
H12	H	0.973500	0.654700	0.294300	0.110239
H13	H	0.844100	0.016500	0.416300	0.110239
H14	H	0.794300	0.077500	0.473500	0.110239
H15	H	0.223100	0.416300	0.016500	0.110239
H16	H	0.154700	0.473500	0.077500	0.110239
H17	H	0.516500	0.723100	0.416300	0.110239
H18	H	0.577500	0.654700	0.473500	0.110239
H19	H	0.916300	0.344100	0.016500	0.110239
H20	H	0.973500	0.294300	0.077500	0.110239
H21	H	0.844100	0.416300	0.723100	0.110239
H22	H	0.794300	0.473500	0.654700	0.110239
H23	H	0.223100	0.016500	0.344100	0.110239
H24	H	0.154700	0.077500	0.294300	0.110239
H25	H	0.583700	0.483500	0.155900	0.110239
H26	H	0.526500	0.422500	0.205700	0.110239
H27	H	0.983500	0.083700	0.776900	0.110239
H28	H	0.922500	0.026500	0.845300	0.110239
H29	H	0.276900	0.155900	0.483500	0.110239
H30	H	0.345300	0.205700	0.422500	0.110239
H31	H	0.655900	0.776900	0.083700	0.110239
H32	H	0.705700	0.845300	0.026500	0.110239
H33	H	0.655900	0.483500	0.776900	0.110239
H34	H	0.705700	0.422500	0.845300	0.110239
H35	H	0.276900	0.083700	0.155900	0.110239
H36	H	0.345300	0.026500	0.205700	0.110239
H37	H	0.983500	0.155900	0.083700	0.110239
H38	H	0.922500	0.205700	0.026500	0.110239
H39	H	0.583700	0.776900	0.483500	0.110239
H40	H	0.526500	0.845300	0.422500	0.110239
H41	H	0.276900	0.483500	0.083700	0.110239
H42	H	0.345300	0.422500	0.026500	0.110239
H43	H	0.655900	0.083700	0.483500	0.110239
H44	H	0.705700	0.026500	0.422500	0.110239
H45	H	0.583700	0.155900	0.776900	0.110239
H46	H	0.526500	0.205700	0.845300	0.110239
H47	H	0.983500	0.776900	0.155900	0.110239
H48	H	0.922500	0.845300	0.205700	0.110239
H49	H	0.483500	0.583700	0.655900	0.110239
H50	H	0.422500	0.526500	0.705700	0.110239
H51	H	0.083700	0.983500	0.276900	0.110239
H52	H	0.026500	0.922500	0.345300	0.110239
H53	H	0.155900	0.276900	0.983500	0.110239
H54	H	0.205700	0.345300	0.922500	0.110239
H55	H	0.776900	0.655900	0.583700	0.110239
H56	H	0.845300	0.705700	0.526500	0.110239
H57	H	0.483500	0.655900	0.276900	0.110239
H58	H	0.422500	0.705700	0.345300	0.110239
H59	H	0.083700	0.276900	0.655900	0.110239
H60	H	0.026500	0.345300	0.705700	0.110239
H61	H	0.155900	0.983500	0.583700	0.110239
H62	H	0.205700	0.922500	0.526500	0.110239
H63	H	0.776900	0.583700	0.983500	0.110239
H64	H	0.845300	0.526500	0.922500	0.110239
H65	H	0.483500	0.276900	0.583700	0.110239
H66	H	0.422500	0.345300	0.526500	0.110239
H67	H	0.083700	0.655900	0.983500	0.110239
H68	H	0.026500	0.705700	0.922500	0.110239
H69	H	0.155900	0.583700	0.276900	0.110239
H70	H	0.205700	0.526500	0.345300	0.110239
H71	H	0.776900	0.983500	0.655900	0.110239
H72	H	0.845300	0.922500	0.705700	0.110239
H73	H	0.416300	0.516500	0.844100	0.110239
H74	H	0.473500	0.577500	0.794300	0.110239
H75	H	0.016500	0.916300	0.223100	0.110239
H76	H	0.077500	0.973500	0.154700	0.110239
H77	H	0.723100	0.844100	0.516500	0.110239
H78	H	0.654700	0.794300	0.577500	0.110239
H79	H	0.344100	0.223100	0.916300	0.110239
H80	H	0.294300	0.154700	0.973500	0.110239
H81	H	0.344100	0.516500	0.223100	0.110239
H82	H	0.294300	0.577500	0.154700	0.110239
H83	H	0.723100	0.916300	0.844100	0.110239
H84	H	0.654700	0.973500	0.794300	0.110239
H85	H	0.016500	0.844100	0.916300	0.110239
H86	H	0.077500	0.794300	0.973500	0.110239
H87	H	0.416300	0.223100	0.516500	0.110239
H88	H	0.473500	0.154700	0.577500	0.110239
H89	H	0.723100	0.516500	0.916300	0.110239
H90	H	0.654700	0.577500	0.973500	0.110239
H91	H	0.344100	0.916300	0.516500	0.110239
H92	H	0.294300	0.973500	0.577500	0.110239
H93	H	0.416300	0.844100	0.223100	0.110239
H94	H	0.473500	0.794300	0.154700	0.110239
H95	H	0.016500	0.223100	0.844100	0.110239
H96	H	0.077500	0.154700	0.794300	0.110239
C1	C	0.577220	0.414180	0.317480	-0.040525
C2	C	0.621400	0.358600	0.385600	0.708292
C3	C	0.914180	0.077220	0.691120	-0.040525
C4	C	0.858600	0.121400	0.634400	0.708292
C5	C	0.817480	0.691120	0.077220	-0.040525
C6	C	0.885600	0.634400	0.121400	0.708292
C7	C	0.191120	0.317480	0.414180	-0.040525
C8	C	0.134400	0.385600	0.358600	0.708292
C9	C	0.577220	0.317480	0.691120	-0.040525
C10	C	0.621400	0.385600	0.634400	0.708292
C11	C	0.914180	0.691120	0.317480	-0.040525
C12	C	0.858600	0.634400	0.385600	0.708292
C13	C	0.817480	0.077220	0.414180	-0.040525
C14	C	0.885600	0.121400	0.358600	0.708292
C15	C	0.191120	0.414180	0.077220	-0.040525
C16	C	0.134400	0.358600	0.121400	0.708292
C17	C	0.577220	0.691120	0.414180	-0.040525
C18	C	0.621400	0.634400	0.358600	0.708292
C19	C	0.914180	0.317480	0.077220	-0.040525
C20	C	0.858600	0.385600	0.121400	0.708292
C21	C	0.817480	0.414180	0.691120	-0.040525
C22	C	0.885600	0.358600	0.634400	0.708292
C23	C	0.191120	0.077220	0.317480	-0.040525
C24	C	0.134400	0.121400	0.385600	0.708292
C25	C	0.585820	0.422780	0.182520	-0.040525
C26	C	0.641400	0.378600	0.114400	0.708292
C27	C	0.922780	0.085820	0.808880	-0.040525
C28	C	0.878600	0.141400	0.865600	0.708292
C29	C	0.308880	0.182520	0.422780	-0.040525
C30	C	0.365600	0.114400	0.378600	0.708292
C31	C	0.682520	0.808880	0.085820	-0.040525
C32	C	0.614400	0.865600	0.141400	0.708292
C33	C	0.682520	0.422780	0.808880	-0.040525
C34	C	0.614400	0.378600	0.865600	0.708292
C35	C	0.308880	0.085820	0.182520	-0.040525
C36	C	0.365600	0.141400	0.114400	0.708292
C37	C	0.922780	0.182520	0.085820	-0.040525
C38	C	0.878600	0.114400	0.141400	0.708292
C39	C	0.585820	0.808880	0.422780	-0.040525
C40	C	0.641400	0.865600	0.378600	0.708292
C41	C	0.308880	0.422780	0.085820	-0.040525
C42	C	0.365600	0.378600	0.141400	0.708292
C43	C	0.682520	0.085820	0.422780	-0.040525
C44	C	0.614400	0.141400	0.378600	0.708292
C45	C	0.585820	0.182520	0.808880	-0.040525
C46	C	0.641400	0.114400	0.865600	0.708292
C47	C	0.922780	0.808880	0.182520	-0.040525
C48	C	0.878600	0.865600	0.114400	0.708292
C49	C	0.422780	0.585820	0.682520	-0.040525
C50	C	0.378600	0.641400	0.614400	0.708292
C51	C	0.085820	0.922780	0.308880	-0.040525
C52	C	0.141400	0.878600	0.365600	0.708292
C53	C	0.182520	0.308880	0.922780	-0.040525
C54	C	0.114400	0.365600	0.878600	0.708292
C55	C	0.808880	0.682520	0.585820	-0.040525
C56	C	0.865600	0.614400	0.641400	0.708292
C57	C	0.422780	0.682520	0.308880	-0.040525
C58	C	0.378600	0.614400	0.365600	0.708292
C59	C	0.085820	0.308880	0.682520	-0.040525
C60	C	0.141400	0.365600	0.614400	0.708292
C61	C	0.182520	0.922780	0.585820	-0.040525
C62	C	0.114400	0.878600	0.641400	0.708292
C63	C	0.808880	0.585820	0.922780	-0.040525
C64	C	0.865600	0.641400	0.878600	0.708292
C65	C	0.422780	0.308880	0.585820	-0.040525
C66	C	0.378600	0.365600	0.641400	0.708292
C67	C	0.085820	0.682520	0.922780	-0.040525
C68	C	0.141400	0.614400	0.878600	0.708292
C69	C	0.182520	0.585820	0.308880	-0.040525
C70	C	0.114400	0.641400	0.365600	0.708292
C71	C	0.808880	0.922780	0.682520	-0.040525
C72	C	0.865600	0.878600	0.614400	0.708292
C73	C	0.414180	0.577220	0.817480	-0.040525
C74	C	0.358600	0.621400	0.885600	0.708292
C75	C	0.077220	0.914180	0.191120	-0.040525
C76	C	0.121400	0.858600	0.134400	0.708292
C77	C	0.691120	0.817480	0.577220	-0.040525
C78	C	0.634400	0.885600	0.621400	0.708292
C79	C	0.317480	0.191120	0.914180	-0.040525
C80	C	0.385600	0.134400	0.858600	0.708292
C81	C	0.317480	0.577220	0.191120	-0.040525
C82	C	0.385600	0.621400	0.134400	0.708292
C83	C	0.691120	0.914180	0.817480	-0.040525
C84	C	0.634400	0.858600	0.885600	0.708292
C85	C	0.077220	0.817480	0.914180	-0.040525
C86	C	0.121400	0.885600	0.858600	0.708292
C87	C	0.414180	0.191120	0.577220	-0.040525
C88	C	0.358600	0.134400	0.621400	0.708292
C89	C	0.691120	0.577220	0.914180	-0.040525
C90	C	0.634400	0.621400	0.858600	0.708292
C91	C	0.317480	0.914180	0.577220	-0.040525
C92	C	0.385600	0.858600	0.621400	0.708292
C93	C	0.414180	0.817480	0.191120	-0.040525
C94	C	0.358600	0.885600	0.134400	0.708292
C95	C	0.077220	0.191120	0.817480	-0.040525
C96	C	0.121400	0.134400	0.885600	0.708292
O1	O	0.688120	0.294060	0.371780	-0.664056
O2	O	0.590200	0.380440	0.451340	-0.660082
O3	O	0.794060	0.188120	0.646040	-0.664056
O4	O	0.880440	0.090200	0.578020	-0.660082
O5	O	0.871780	0.646040	0.188120	-0.664056
O6	O	0.951340	0.578020	0.090200	-0.660082
O7	O	0.146040	0.371780	0.294060	-0.664056
O8	O	0.078020	0.451340	0.380440	-0.660082
O9	O	0.688120	0.371780	0.646040	-0.664056
O10	O	0.590200	0.451340	0.578020	-0.660082
O11	O	0.794060	0.646040	0.371780	-0.664056
O12	O	0.880440	0.578020	0.451340	-0.660082
O13	O	0.871780	0.188120	0.294060	-0.664056
O14	O	0.951340	0.090200	0.380440	-0.660082
O15	O	0.146040	0.294060	0.188120	-0.664056
O16	O	0.078020	0.380440	0.090200	-0.660082
O17	O	0.688120	0.646040	0.294060	-0.664056
O18	O	0.590200	0.578020	0.380440	-0.660082
O19	O	0.794060	0.371780	0.188120	-0.664056
O20	O	0.880440	0.451340	0.090200	-0.660082
O21	O	0.871780	0.294060	0.646040	-0.664056
O22	O	0.951340	0.380440	0.578020	-0.660082
O23	O	0.146040	0.188120	0.371780	-0.664056
O24	O	0.078020	0.090200	0.451340	-0.660082
O25	O	0.705940	0.311880	0.128220	-0.664056
O26	O	0.619560	0.409800	0.048660	-0.660082
O27	O	0.811880	0.205940	0.853960	-0.664056
O28	O	0.909800	0.119560	0.921980	-0.660082
O29	O	0.353960	0.128220	0.311880	-0.664056
O30	O	0.421980	0.048660	0.409800	-0.660082
O31	O	0.628220	0.853960	0.205940	-0.664056
O32	O	0.548660	0.921980	0.119560	-0.660082
O33	O	0.628220	0.311880	0.853960	-0.664056
O34	O	0.548660	0.409800	0.921980	-0.660082
O35	O	0.353960	0.205940	0.128220	-0.664056
O36	O	0.421980	0.119560	0.048660	-0.660082
O37	O	0.811880	0.128220	0.205940	-0.664056
O38	O	0.909800	0.048660	0.119560	-0.660082
O39	O	0.705940	0.853960	0.311880	-0.664056
O40	O	0.619560	0.921980	0.409800	-0.660082
O41	O	0.353960	0.311880	0.205940	-0.664056
O42	O	0.421980	0.409800	0.119560	-0.660082
O43	O	0.628220	0.205940	0.311880	-0.664056
O44	O	0.548660	0.119560	0.409800	-0.660082
O45	O	0.705940	0.128220	0.853960	-0.664056
O46	O	0.619560	0.048660	0.921980	-0.660082
O47	O	0.811880	0.853960	0.128220	-0.664056
O48	O	0.909800	0.921980	0.048660	-0.660082
O49	O	0.311880	0.705940	0.628220	-0.664056
O50	O	0.409800	0.619560	0.548660	-0.660082
O51	O	0.205940	0.811880	0.353960	-0.664056
O52	O	0.119560	0.909800	0.421980	-0.660082
O53	O	0.128220	0.353960	0.811880	-0.664056
O54	O	0.048660	0.421980	0.909800	-0.660082
O55	O	0.853960	0.628220	0.705940	-0.664056
O56	O	0.921980	0.548660	0.619560	-0.660082
O57	O	0.311880	0.628220	0.353960	-0.664056
O58	O	0.409800	0.548660	0.421980	-0.660082
O59	O	0.205940	0.353960	0.628220	-0.664056
O60	O	0.119560	0.421980	0.548660	-0.660082
O61	O	0.128220	0.811880	0.705940	-0.664056
O62	O	0.048660	0.909800	0.619560	-0.660082
O63	O	0.853960	0.705940	0.811880	-0.664056
O64	O	0.921980	0.619560	0.909800	-0.660082
O65	O	0.311880	0.353960	0.705940	-0.664056
O66	O	0.409800	0.421980	0.619560	-0.660082
O67	O	0.205940	0.628220	0.811880	-0.664056
O68	O	0.119560	0.548660	0.909800	-0.660082
O69	O	0.128220	0.705940	0.353960	-0.664056
O70	O	0.048660	0.619560	0.421980	-0.660082
O71	O	0.853960	0.811880	0.628220	-0.664056
O72	O	0.921980	0.909800	0.548660	-0.660082
O73	O	0.294060	0.688120	0.871780	-0.664056
O74	O	0.380440	0.590200	0.951340	-0.660082
O75	O	0.188120	0.794060	0.146040	-0.664056
O76	O	0.090200	0.880440	0.078020	-0.660082
O77	O	0.646040	0.871780	0.688120	-0.664056
O78	O	0.578020	0.951340	0.590200	-0.660082
O79	O	0.371780	0.146040	0.794060	-0.664056
O80	O	0.451340	0.078020	0.880440	-0.660082
O81	O	0.371780	0.688120	0.146040	-0.664056
O82	O	0.451340	0.590200	0.078020	-0.660082
O83	O	0.646040	0.794060	0.871780	-0.664056
O84	O	0.578020	0.880440	0.951340	-0.660082
O85	O	0.188120	0.871780	0.794060	-0.664056
O86	O	0.090200	0.951340	0.880440	-0.660082
O87	O	0.294060	0.146040	0.688120	-0.664056
O88	O	0.380440	0.078020	0.590200	-0.660082
O89	O	0.646040	0.688120	0.794060	-0.664056
O90	O	0.578020	0.590200	0.880440	-0.660082
O91	O	0.371780	0.794060	0.688120	-0.664056
O92	O	0.451340	0.880440	0.590200	-0.660082
O93	O	0.294060	0.871780	0.146040	-0.664056
O94	O	0.380440	0.951340	0.078020	-0.660082
O95	O	0.188120	0.146040	0.871780	-0.664056
O96	O	0.090200	0.078020	0.951340	-0.660082
O97	O	0.620180	0.379820	0.250000	-0.301613
O98	O	0.879820	0.120180	0.750000	-0.301613
O99	O	0.750000	0.750000	0.120180	-0.301613
O100	O	0.250000	0.250000	0.379820	-0.301613
O101	O	0.620180	0.250000	0.750000	-0.301613
O102	O	0.879820	0.750000	0.250000	-0.301613
O103	O	0.750000	0.120180	0.379820	-0.301613
O104	O	0.250000	0.379820	0.120180	-0.301613
O105	O	0.620180	0.750000	0.379820	-0.301613
O106	O	0.879820	0.250000	0.120180	-0.301613
O107	O	0.750000	0.379820	0.750000	-0.301613
O108	O	0.250000	0.120180	0.250000	-0.301613
O109	O	0.379820	0.620180	0.750000	-0.301613
O110	O	0.120180	0.879820	0.250000	-0.301613
O111	O	0.250000	0.250000	0.879820	-0.301613
O112	O	0.750000	0.750000	0.620180	-0.301613
O113	O	0.379820	0.750000	0.250000	-0.301613
O114	O	0.120180	0.250000	0.750000	-0.301613
O115	O	0.250000	0.879820	0.620180	-0.301613
O116	O	0.750000	0.620180	0.879820	-0.301613
O117	O	0.379820	0.250000	0.620180	-0.301613
O118	O	0.120180	0.750000	0.879820	-0.301613
O119	O	0.250000	0.620180	0.250000	-0.301613
O120	O	0.750000	0.879820	0.750000	-0.301613
