data_FERHAN_clean_PM
_symmetry_space_group_name_H-M	'P1'
_cell_length_a	17.103100
_cell_length_b	17.103100
_cell_length_c	17.103100
_cell_angle_alpha	87.666701
_cell_angle_beta	87.666701
_cell_angle_gamma	87.666700
_symmetry_Int_Tables_number 1

loop_
_symmetry_equiv_pos_as_xyz
'x,y,z'

loop_
_atom_site_label
_atom_site_type_symbol
_atom_site_fract_x
_atom_site_fract_y
_atom_site_fract_z
_atom_site_charge
Zn1	Zn	0.884250	0.884280	0.753740	1.094219
Zn2	Zn	0.753740	0.884250	0.884280	1.094219
Zn3	Zn	0.884280	0.753740	0.884250	1.094219
Zn4	Zn	0.753470	0.753470	0.753470	1.100009
Zn5	Zn	0.115750	0.115720	0.246260	1.094219
Zn6	Zn	0.246260	0.115750	0.115720	1.094219
Zn7	Zn	0.115720	0.246260	0.115750	1.094219
Zn8	Zn	0.246530	0.246530	0.246530	1.100009
H1	H	0.908600	0.914000	0.503300	0.125791
H2	H	0.762100	0.731700	0.386300	0.100788
H3	H	0.770200	0.729000	0.521600	0.100269
H4	H	0.990100	0.014300	0.342800	0.077307
H5	H	0.949100	0.000700	0.427700	0.077307
H6	H	0.016100	0.940100	0.397000	0.077307
H7	H	0.717800	0.884100	0.134200	0.125791
H8	H	0.923800	0.751600	0.258100	0.100788
H9	H	0.916200	0.749500	0.122600	0.100269
H10	H	0.608700	0.963000	0.281400	0.077307
H11	H	0.660300	0.972200	0.201700	0.077307
H12	H	0.613000	0.894300	0.220400	0.077307
H13	H	0.503300	0.908600	0.914000	0.125791
H14	H	0.386300	0.762100	0.731700	0.100788
H15	H	0.521600	0.770200	0.729000	0.100269
H16	H	0.342800	0.990100	0.014300	0.077307
H17	H	0.427700	0.949100	0.000700	0.077307
H18	H	0.397000	0.016100	0.940100	0.077307
H19	H	0.134200	0.717800	0.884100	0.125791
H20	H	0.258100	0.923800	0.751600	0.100788
H21	H	0.122600	0.916200	0.749500	0.100269
H22	H	0.281400	0.608700	0.963000	0.077307
H23	H	0.201700	0.660300	0.972200	0.077307
H24	H	0.220400	0.613000	0.894300	0.077307
H25	H	0.914000	0.503300	0.908600	0.125791
H26	H	0.731700	0.386300	0.762100	0.100788
H27	H	0.729000	0.521600	0.770200	0.100269
H28	H	0.014300	0.342800	0.990100	0.077307
H29	H	0.000700	0.427700	0.949100	0.077307
H30	H	0.940100	0.397000	0.016100	0.077307
H31	H	0.884100	0.134200	0.717800	0.125791
H32	H	0.751600	0.258100	0.923800	0.100788
H33	H	0.749500	0.122600	0.916200	0.100269
H34	H	0.963000	0.281400	0.608700	0.077307
H35	H	0.972200	0.201700	0.660300	0.077307
H36	H	0.894300	0.220400	0.613000	0.077307
H37	H	0.091400	0.086000	0.496700	0.125791
H38	H	0.237900	0.268300	0.613700	0.100788
H39	H	0.229800	0.271000	0.478400	0.100269
H40	H	0.009900	0.985700	0.657200	0.077307
H41	H	0.050900	0.999300	0.572300	0.077307
H42	H	0.983900	0.059900	0.603000	0.077307
H43	H	0.282200	0.115900	0.865800	0.125791
H44	H	0.076200	0.248400	0.741900	0.100788
H45	H	0.083800	0.250500	0.877400	0.100269
H46	H	0.391300	0.037000	0.718600	0.077307
H47	H	0.339700	0.027800	0.798300	0.077307
H48	H	0.387000	0.105700	0.779600	0.077307
H49	H	0.496700	0.091400	0.086000	0.125791
H50	H	0.613700	0.237900	0.268300	0.100788
H51	H	0.478400	0.229800	0.271000	0.100269
H52	H	0.657200	0.009900	0.985700	0.077307
H53	H	0.572300	0.050900	0.999300	0.077307
H54	H	0.603000	0.983900	0.059900	0.077307
H55	H	0.865800	0.282200	0.115900	0.125791
H56	H	0.741900	0.076200	0.248400	0.100788
H57	H	0.877400	0.083800	0.250500	0.100269
H58	H	0.718600	0.391300	0.037000	0.077307
H59	H	0.798300	0.339700	0.027800	0.077307
H60	H	0.779600	0.387000	0.105700	0.077307
H61	H	0.086000	0.496700	0.091400	0.125791
H62	H	0.268300	0.613700	0.237900	0.100788
H63	H	0.271000	0.478400	0.229800	0.100269
H64	H	0.985700	0.657200	0.009900	0.077307
H65	H	0.999300	0.572300	0.050900	0.077307
H66	H	0.059900	0.603000	0.983900	0.077307
H67	H	0.115900	0.865800	0.282200	0.125791
H68	H	0.248400	0.741900	0.076200	0.100788
H69	H	0.250500	0.877400	0.083800	0.100269
H70	H	0.037000	0.718600	0.391300	0.077307
H71	H	0.027800	0.798300	0.339700	0.077307
H72	H	0.105700	0.779600	0.387000	0.077307
C1	C	0.842900	0.820500	0.612400	0.696677
C2	C	0.839200	0.821400	0.524900	-0.091114
C3	C	0.878900	0.876600	0.479200	-0.183899
C4	C	0.875600	0.877200	0.398800	0.205802
C5	C	0.832200	0.822200	0.363700	-0.042506
C6	C	0.792800	0.768600	0.409900	-0.121441
C7	C	0.796900	0.767500	0.490300	-0.083623
C8	C	0.972000	0.974000	0.382000	-0.015168
C9	C	0.810800	0.819500	0.028400	0.687581
C10	C	0.816900	0.819000	0.115200	-0.084589
C11	C	0.760600	0.857800	0.159100	-0.183899
C12	C	0.765400	0.859500	0.239900	0.205802
C13	C	0.827400	0.821800	0.276500	-0.042506
C14	C	0.882400	0.779900	0.232800	-0.121441
C15	C	0.877800	0.778400	0.152500	-0.083623
C16	C	0.642500	0.935200	0.243300	-0.015168
C17	C	0.612400	0.842900	0.820500	0.696677
C18	C	0.524900	0.839200	0.821400	-0.091114
C19	C	0.479200	0.878900	0.876600	-0.183899
C20	C	0.398800	0.875600	0.877200	0.205802
C21	C	0.363700	0.832200	0.822200	-0.042506
C22	C	0.409900	0.792800	0.768600	-0.121441
C23	C	0.490300	0.796900	0.767500	-0.083623
C24	C	0.382000	0.972000	0.974000	-0.015168
C25	C	0.028400	0.810800	0.819500	0.687581
C26	C	0.115200	0.816900	0.819000	-0.084589
C27	C	0.159100	0.760600	0.857800	-0.183899
C28	C	0.239900	0.765400	0.859500	0.205802
C29	C	0.276500	0.827400	0.821800	-0.042506
C30	C	0.232800	0.882400	0.779900	-0.121441
C31	C	0.152500	0.877800	0.778400	-0.083623
C32	C	0.243300	0.642500	0.935200	-0.015168
C33	C	0.820500	0.612400	0.842900	0.696677
C34	C	0.821400	0.524900	0.839200	-0.091114
C35	C	0.876600	0.479200	0.878900	-0.183899
C36	C	0.877200	0.398800	0.875600	0.205802
C37	C	0.822200	0.363700	0.832200	-0.042506
C38	C	0.768600	0.409900	0.792800	-0.121441
C39	C	0.767500	0.490300	0.796900	-0.083623
C40	C	0.974000	0.382000	0.972000	-0.015168
C41	C	0.819500	0.028400	0.810800	0.687581
C42	C	0.819000	0.115200	0.816900	-0.084589
C43	C	0.857800	0.159100	0.760600	-0.183899
C44	C	0.859500	0.239900	0.765400	0.205802
C45	C	0.821800	0.276500	0.827400	-0.042506
C46	C	0.779900	0.232800	0.882400	-0.121441
C47	C	0.778400	0.152500	0.877800	-0.083623
C48	C	0.935200	0.243300	0.642500	-0.015168
C49	C	0.157100	0.179500	0.387600	0.696677
C50	C	0.160800	0.178600	0.475100	-0.091114
C51	C	0.121100	0.123400	0.520800	-0.183899
C52	C	0.124400	0.122800	0.601200	0.205802
C53	C	0.167800	0.177800	0.636300	-0.042506
C54	C	0.207200	0.231400	0.590100	-0.121441
C55	C	0.203100	0.232500	0.509700	-0.083623
C56	C	0.028000	0.026000	0.618000	-0.015168
C57	C	0.189200	0.180500	0.971600	0.687581
C58	C	0.183100	0.181000	0.884800	-0.084589
C59	C	0.239400	0.142200	0.840900	-0.183899
C60	C	0.234600	0.140500	0.760100	0.205802
C61	C	0.172600	0.178200	0.723500	-0.042506
C62	C	0.117600	0.220100	0.767200	-0.121441
C63	C	0.122200	0.221600	0.847500	-0.083623
C64	C	0.357500	0.064800	0.756700	-0.015168
C65	C	0.387600	0.157100	0.179500	0.696677
C66	C	0.475100	0.160800	0.178600	-0.091114
C67	C	0.520800	0.121100	0.123400	-0.183899
C68	C	0.601200	0.124400	0.122800	0.205802
C69	C	0.636300	0.167800	0.177800	-0.042506
C70	C	0.590100	0.207200	0.231400	-0.121441
C71	C	0.509700	0.203100	0.232500	-0.083623
C72	C	0.618000	0.028000	0.026000	-0.015168
C73	C	0.971600	0.189200	0.180500	0.687581
C74	C	0.884800	0.183100	0.181000	-0.084589
C75	C	0.840900	0.239400	0.142200	-0.183899
C76	C	0.760100	0.234600	0.140500	0.205802
C77	C	0.723500	0.172600	0.178200	-0.042506
C78	C	0.767200	0.117600	0.220100	-0.121441
C79	C	0.847500	0.122200	0.221600	-0.083623
C80	C	0.756700	0.357500	0.064800	-0.015168
C81	C	0.179500	0.387600	0.157100	0.696677
C82	C	0.178600	0.475100	0.160800	-0.091114
C83	C	0.123400	0.520800	0.121100	-0.183899
C84	C	0.122800	0.601200	0.124400	0.205802
C85	C	0.177800	0.636300	0.167800	-0.042506
C86	C	0.231400	0.590100	0.207200	-0.121441
C87	C	0.232500	0.509700	0.203100	-0.083623
C88	C	0.026000	0.618000	0.028000	-0.015168
C89	C	0.180500	0.971600	0.189200	0.687581
C90	C	0.181000	0.884800	0.183100	-0.084589
C91	C	0.142200	0.840900	0.239400	-0.183899
C92	C	0.140500	0.760100	0.234600	0.205802
C93	C	0.178200	0.723500	0.172600	-0.042506
C94	C	0.220100	0.767200	0.117600	-0.121441
C95	C	0.221600	0.847500	0.122200	-0.083623
C96	C	0.064800	0.756700	0.357500	-0.015168
O1	O	0.810600	0.769300	0.652100	-0.632227
O2	O	0.881000	0.871900	0.641100	-0.609768
O3	O	0.913000	0.929000	0.348000	-0.243266
O4	O	0.765100	0.868600	0.994700	-0.606921
O5	O	0.851100	0.766800	0.996400	-0.606921
O6	O	0.710300	0.899300	0.282200	-0.243266
O7	O	0.652100	0.810600	0.769300	-0.632227
O8	O	0.641100	0.881000	0.871900	-0.609768
O9	O	0.348000	0.913000	0.929000	-0.243266
O10	O	0.994700	0.765100	0.868600	-0.606921
O11	O	0.996400	0.851100	0.766800	-0.606921
O12	O	0.282200	0.710300	0.899300	-0.243266
O13	O	0.769300	0.652100	0.810600	-0.632227
O14	O	0.871900	0.641100	0.881000	-0.609768
O15	O	0.929000	0.348000	0.913000	-0.243266
O16	O	0.868600	0.994700	0.765100	-0.606921
O17	O	0.766800	0.996400	0.851100	-0.606921
O18	O	0.899300	0.282200	0.710300	-0.243266
O19	O	0.818100	0.818100	0.818100	-1.088829
O20	O	0.189400	0.230700	0.347900	-0.632227
O21	O	0.119000	0.128100	0.358900	-0.609768
O22	O	0.087000	0.071000	0.652000	-0.243266
O23	O	0.234900	0.131400	0.005300	-0.606921
O24	O	0.148900	0.233200	0.003600	-0.606921
O25	O	0.289700	0.100700	0.717800	-0.243266
O26	O	0.347900	0.189400	0.230700	-0.632227
O27	O	0.358900	0.119000	0.128100	-0.609768
O28	O	0.652000	0.087000	0.071000	-0.243266
O29	O	0.005300	0.234900	0.131400	-0.606921
O30	O	0.003600	0.148900	0.233200	-0.606921
O31	O	0.717800	0.289700	0.100700	-0.243266
O32	O	0.230700	0.347900	0.189400	-0.632227
O33	O	0.128100	0.358900	0.119000	-0.609768
O34	O	0.071000	0.652000	0.087000	-0.243266
O35	O	0.131400	0.005300	0.234900	-0.606921
O36	O	0.233200	0.003600	0.148900	-0.606921
O37	O	0.100700	0.717800	0.289700	-0.243266
O38	O	0.181900	0.181900	0.181900	-1.088829
