data_FEVSAC_clean_PM
_symmetry_space_group_name_H-M	'P1'
_cell_length_a	10.240300
_cell_length_b	20.417000
_cell_length_c	21.733400
_cell_angle_alpha	90.000000
_cell_angle_beta	90.000000
_cell_angle_gamma	95.301000
_symmetry_Int_Tables_number 1

loop_
_symmetry_equiv_pos_as_xyz
'x,y,z'

loop_
_atom_site_label
_atom_site_type_symbol
_atom_site_fract_x
_atom_site_fract_y
_atom_site_fract_z
_atom_site_charge
Rb1	Rb	0.367720	0.648340	0.882530	0.739236
Rb2	Rb	0.429930	0.035800	0.903190	0.773201
Rb3	Rb	0.377250	0.141140	0.636030	0.722036
Rb4	Rb	0.132280	0.851660	0.382530	0.739236
Rb5	Rb	0.070070	0.464200	0.403190	0.773201
Rb6	Rb	0.122750	0.358860	0.136030	0.722036
Rb7	Rb	0.632280	0.351660	0.117470	0.739236
Rb8	Rb	0.570070	0.964200	0.096810	0.773201
Rb9	Rb	0.622750	0.858860	0.363970	0.722036
Rb10	Rb	0.867720	0.148340	0.617470	0.739236
Rb11	Rb	0.929930	0.535800	0.596810	0.773201
Rb12	Rb	0.877250	0.641140	0.863970	0.722036
H1	H	0.118600	0.920400	0.068600	0.170337
H2	H	0.057500	0.987500	0.076300	0.170337
H3	H	0.184200	0.974300	0.113000	0.170337
H4	H	0.381400	0.579600	0.568600	0.170337
H5	H	0.442500	0.512500	0.576300	0.170337
H6	H	0.315800	0.525700	0.613000	0.170337
H7	H	0.881400	0.079600	0.931400	0.170337
H8	H	0.942500	0.012500	0.923700	0.170337
H9	H	0.815800	0.025700	0.887000	0.170337
H10	H	0.618600	0.420400	0.431400	0.170337
H11	H	0.557500	0.487500	0.423700	0.170337
H12	H	0.684200	0.474300	0.387000	0.170337
C1	C	0.221800	0.900760	0.785070	0.271673
C2	C	0.243200	0.947130	0.650320	0.343201
C3	C	0.198600	0.824960	0.566890	0.333596
C4	C	0.145700	0.703220	0.650090	0.322400
C5	C	0.156400	0.749780	0.785380	0.245983
C6	C	0.203100	0.859760	0.731930	0.015767
C7	C	0.214100	0.880920	0.669970	-0.024180
C8	C	0.195100	0.825030	0.632500	-0.014760
C9	C	0.171500	0.769410	0.670310	-0.003051
C10	C	0.175800	0.790810	0.731620	-0.007563
C11	C	0.569700	0.933410	0.770680	0.322400
C12	C	0.597300	0.997290	0.644630	0.333596
C13	C	0.552200	0.887060	0.545470	0.343201
C14	C	0.492800	0.755480	0.613680	0.271673
C15	C	0.502500	0.782800	0.751770	0.333596
C16	C	0.555000	0.899110	0.713610	-0.017881
C17	C	0.567500	0.928920	0.654820	-0.014760
C18	C	0.547200	0.879410	0.610460	-0.024180
C19	C	0.521500	0.818670	0.641020	0.001268
C20	C	0.526000	0.831490	0.705090	-0.021702
C21	C	0.137800	0.966800	0.074860	-0.337866
C22	C	0.342100	0.270900	0.783390	0.343201
C23	C	0.394100	0.421200	0.787180	0.271673
C24	C	0.404100	0.464730	0.922190	0.333596
C25	C	0.366600	0.338170	0.003900	0.245983
C26	C	0.328400	0.219180	0.917020	0.322400
C27	C	0.356400	0.309470	0.837980	-0.024180
C28	C	0.379900	0.378520	0.839650	0.001268
C29	C	0.387200	0.398330	0.901960	-0.008056
C30	C	0.368000	0.340980	0.938260	-0.000452
C31	C	0.349200	0.286300	0.899170	-0.003051
C32	C	0.278200	0.599240	0.285070	0.271673
C33	C	0.256800	0.552870	0.150320	0.343201
C34	C	0.301400	0.675040	0.066890	0.333596
C35	C	0.354300	0.796780	0.150090	0.322400
C36	C	0.343600	0.750220	0.285380	0.245983
C37	C	0.296900	0.640240	0.231930	0.015767
C38	C	0.285900	0.619080	0.169970	-0.024180
C39	C	0.304900	0.674970	0.132500	-0.014760
C40	C	0.328500	0.730590	0.170310	-0.003051
C41	C	0.324200	0.709190	0.231620	-0.007563
C42	C	0.930300	0.566590	0.270680	0.322400
C43	C	0.902700	0.502710	0.144630	0.333596
C44	C	0.947800	0.612940	0.045470	0.343201
C45	C	0.007200	0.744520	0.113680	0.271673
C46	C	0.997500	0.717200	0.251770	0.333596
C47	C	0.945000	0.600890	0.213610	-0.017881
C48	C	0.932500	0.571080	0.154820	-0.014760
C49	C	0.952800	0.620590	0.110460	-0.024180
C50	C	0.978500	0.681330	0.141020	0.001268
C51	C	0.974000	0.668510	0.205090	-0.021702
C52	C	0.362200	0.533200	0.574860	-0.337866
C53	C	0.157900	0.229100	0.283390	0.343201
C54	C	0.105900	0.078800	0.287180	0.271673
C55	C	0.095900	0.035270	0.422190	0.333596
C56	C	0.133400	0.161830	0.503900	0.245983
C57	C	0.171600	0.280820	0.417020	0.322400
C58	C	0.143600	0.190530	0.337980	-0.024180
C59	C	0.120100	0.121480	0.339650	0.001268
C60	C	0.112800	0.101670	0.401960	-0.008056
C61	C	0.132000	0.159020	0.438260	-0.000452
C62	C	0.150800	0.213700	0.399170	-0.003051
C63	C	0.778200	0.099240	0.214930	0.271673
C64	C	0.756800	0.052870	0.349680	0.343201
C65	C	0.801400	0.175040	0.433110	0.333596
C66	C	0.854300	0.296780	0.349910	0.322400
C67	C	0.843600	0.250220	0.214620	0.245983
C68	C	0.796900	0.140240	0.268070	0.015767
C69	C	0.785900	0.119080	0.330030	-0.024180
C70	C	0.804900	0.174970	0.367500	-0.014760
C71	C	0.828500	0.230590	0.329690	-0.003051
C72	C	0.824200	0.209190	0.268380	-0.007563
C73	C	0.430300	0.066590	0.229320	0.322400
C74	C	0.402700	0.002710	0.355370	0.333596
C75	C	0.447800	0.112940	0.454530	0.343201
C76	C	0.507200	0.244520	0.386320	0.271673
C77	C	0.497500	0.217200	0.248230	0.333596
C78	C	0.445000	0.100890	0.286390	-0.017881
C79	C	0.432500	0.071080	0.345180	-0.014760
C80	C	0.452800	0.120590	0.389540	-0.024180
C81	C	0.478500	0.181330	0.358980	0.001268
C82	C	0.474000	0.168510	0.294910	-0.021702
C83	C	0.862200	0.033200	0.925140	-0.337866
C84	C	0.657900	0.729100	0.216610	0.343201
C85	C	0.605900	0.578800	0.212820	0.271673
C86	C	0.595900	0.535270	0.077810	0.333596
C87	C	0.633400	0.661830	0.996100	0.245983
C88	C	0.671600	0.780820	0.082980	0.322400
C89	C	0.643600	0.690530	0.162020	-0.024180
C90	C	0.620100	0.621480	0.160350	0.001268
C91	C	0.612800	0.601670	0.098040	-0.008056
C92	C	0.632000	0.659020	0.061740	-0.000452
C93	C	0.650800	0.713700	0.100830	-0.003051
C94	C	0.721800	0.400760	0.714930	0.271673
C95	C	0.743200	0.447130	0.849680	0.343201
C96	C	0.698600	0.324960	0.933110	0.333596
C97	C	0.645700	0.203220	0.849910	0.322400
C98	C	0.656400	0.249780	0.714620	0.245983
C99	C	0.703100	0.359760	0.768070	0.015767
C100	C	0.714100	0.380920	0.830030	-0.024180
C101	C	0.695100	0.325030	0.867500	-0.014760
C102	C	0.671500	0.269410	0.829690	-0.003051
C103	C	0.675800	0.290810	0.768380	-0.007563
C104	C	0.069700	0.433410	0.729320	0.322400
C105	C	0.097300	0.497290	0.855370	0.333596
C106	C	0.052200	0.387060	0.954530	0.343201
C107	C	0.992800	0.255480	0.886320	0.271673
C108	C	0.002500	0.282800	0.748230	0.333596
C109	C	0.055000	0.399110	0.786390	-0.017881
C110	C	0.067500	0.428920	0.845180	-0.014760
C111	C	0.047200	0.379410	0.889540	-0.024180
C112	C	0.021500	0.318670	0.858980	0.001268
C113	C	0.026000	0.331490	0.794910	-0.021702
C114	C	0.637800	0.466800	0.425140	-0.337866
C115	C	0.842100	0.770900	0.716610	0.343201
C116	C	0.894100	0.921200	0.712820	0.271673
C117	C	0.904100	0.964730	0.577810	0.333596
C118	C	0.866600	0.838170	0.496100	0.245983
C119	C	0.828400	0.719180	0.582980	0.322400
C120	C	0.856400	0.809470	0.662020	-0.024180
C121	C	0.879900	0.878520	0.660350	0.001268
C122	C	0.887200	0.898330	0.598040	-0.008056
C123	C	0.868000	0.840980	0.561740	-0.000452
C124	C	0.849200	0.786300	0.600830	-0.003051
N1	N	0.239300	0.933530	0.827500	-0.326332
N2	N	0.267000	0.999860	0.634810	-0.495305
N3	N	0.201700	0.824610	0.514340	-0.467093
N4	N	0.124200	0.649900	0.633200	-0.434635
N5	N	0.141400	0.718060	0.828090	-0.444459
N6	N	0.580900	0.961290	0.816000	-0.434635
N7	N	0.621900	0.052630	0.637780	-0.467093
N8	N	0.558400	0.891130	0.493200	-0.495305
N9	N	0.469100	0.704640	0.592740	-0.326332
N10	N	0.482000	0.743380	0.788610	-0.467093
N11	N	0.219900	0.994920	0.023690	0.710198
N12	N	0.331900	0.241180	0.739040	-0.495305
N13	N	0.404600	0.453900	0.745150	-0.326332
N14	N	0.416400	0.518360	0.936300	-0.467093
N15	N	0.364600	0.334290	0.056420	-0.444459
N16	N	0.312600	0.164880	0.930500	-0.434635
N17	N	0.260700	0.566470	0.327500	-0.326332
N18	N	0.233000	0.500140	0.134810	-0.495305
N19	N	0.298300	0.675390	0.014340	-0.467093
N20	N	0.375800	0.850100	0.133200	-0.434635
N21	N	0.358600	0.781940	0.328090	-0.444459
N22	N	0.919100	0.538710	0.316000	-0.434635
N23	N	0.878100	0.447370	0.137780	-0.467093
N24	N	0.941600	0.608870	0.993200	-0.495305
N25	N	0.030900	0.795360	0.092740	-0.326332
N26	N	0.018000	0.756620	0.288610	-0.467093
N27	N	0.280100	0.505080	0.523690	0.710198
N28	N	0.168100	0.258820	0.239040	-0.495305
N29	N	0.095400	0.046100	0.245150	-0.326332
N30	N	0.083600	0.981640	0.436300	-0.467093
N31	N	0.135400	0.165710	0.556420	-0.444459
N32	N	0.187400	0.335120	0.430500	-0.434635
N33	N	0.760700	0.066470	0.172500	-0.326332
N34	N	0.733000	0.000140	0.365190	-0.495305
N35	N	0.798300	0.175390	0.485660	-0.467093
N36	N	0.875800	0.350100	0.366800	-0.434635
N37	N	0.858600	0.281940	0.171910	-0.444459
N38	N	0.419100	0.038710	0.184000	-0.434635
N39	N	0.378100	0.947370	0.362220	-0.467093
N40	N	0.441600	0.108870	0.506800	-0.495305
N41	N	0.530900	0.295360	0.407260	-0.326332
N42	N	0.518000	0.256620	0.211390	-0.467093
N43	N	0.780100	0.005080	0.976310	0.710198
N44	N	0.668100	0.758820	0.260960	-0.495305
N45	N	0.595400	0.546100	0.254850	-0.326332
N46	N	0.583600	0.481640	0.063700	-0.467093
N47	N	0.635400	0.665710	0.943580	-0.444459
N48	N	0.687400	0.835120	0.069500	-0.434635
N49	N	0.739300	0.433530	0.672500	-0.326332
N50	N	0.767000	0.499860	0.865190	-0.495305
N51	N	0.701700	0.324610	0.985660	-0.467093
N52	N	0.624200	0.149900	0.866800	-0.434635
N53	N	0.641400	0.218060	0.671910	-0.444459
N54	N	0.080900	0.461290	0.684000	-0.434635
N55	N	0.121900	0.552630	0.862220	-0.467093
N56	N	0.058400	0.391130	0.006800	-0.495305
N57	N	0.969100	0.204640	0.907260	-0.326332
N58	N	0.982000	0.243380	0.711390	-0.467093
N59	N	0.719900	0.494920	0.476310	0.710198
N60	N	0.831900	0.741180	0.760960	-0.495305
N61	N	0.904600	0.953900	0.754850	-0.326332
N62	N	0.916400	0.018360	0.563700	-0.467093
N63	N	0.864600	0.834290	0.443580	-0.444459
N64	N	0.812600	0.664880	0.569500	-0.434635
O1	O	0.334400	0.013650	0.033810	-0.563883
O2	O	0.170000	0.997230	0.972650	-0.520481
O3	O	0.165600	0.486350	0.533810	-0.563883
O4	O	0.330000	0.502770	0.472650	-0.520481
O5	O	0.665600	0.986350	0.966190	-0.563883
O6	O	0.830000	0.002770	0.027350	-0.520481
O7	O	0.834400	0.513650	0.466190	-0.563883
O8	O	0.670000	0.497230	0.527350	-0.520481
