data_FEZREJ_clean_PM
_symmetry_space_group_name_H-M	'P1'
_cell_length_a	13.381500
_cell_length_b	17.764700
_cell_length_c	17.764700
_cell_angle_alpha	90.000000
_cell_angle_beta	90.000000
_cell_angle_gamma	90.000000
_symmetry_Int_Tables_number 1

loop_
_symmetry_equiv_pos_as_xyz
'x,y,z'

loop_
_atom_site_label
_atom_site_type_symbol
_atom_site_fract_x
_atom_site_fract_y
_atom_site_fract_z
_atom_site_charge
Ba1	Ba	0.177930	0.135880	0.614270	1.682054
Ba2	Ba	0.677930	0.864120	0.385730	1.682054
Ba3	Ba	0.427930	0.885730	0.635880	1.682054
Ba4	Ba	0.927930	0.114270	0.364120	1.682054
Ba5	Ba	0.072070	0.364120	0.114270	1.682054
Ba6	Ba	0.572070	0.635880	0.885730	1.682054
Ba7	Ba	0.822070	0.614270	0.135880	1.682054
Ba8	Ba	0.322070	0.385730	0.864120	1.682054
Cd1	Cd	0.250000	0.334320	0.665680	1.163956
Cd2	Cd	0.750000	0.665680	0.334320	1.163956
Cd3	Cd	0.500000	0.834320	0.834320	1.163956
Cd4	Cd	0.000000	0.165680	0.165680	1.163956
H1	H	0.165200	0.241900	0.415400	0.099847
H2	H	0.301200	0.302900	0.223400	0.096231
H3	H	0.421700	0.367600	0.292100	0.097680
H4	H	0.408300	0.373700	0.422800	0.096231
H5	H	0.665200	0.758100	0.584600	0.099847
H6	H	0.801200	0.697100	0.776600	0.096231
H7	H	0.921700	0.632400	0.707900	0.097680
H8	H	0.908300	0.626300	0.577200	0.096231
H9	H	0.415200	0.084600	0.741900	0.099847
H10	H	0.551200	0.276600	0.802900	0.096231
H11	H	0.671700	0.207900	0.867600	0.097680
H12	H	0.658300	0.077200	0.873700	0.096231
H13	H	0.915200	0.915400	0.258100	0.099847
H14	H	0.051200	0.723400	0.197100	0.096231
H15	H	0.171700	0.792100	0.132400	0.097680
H16	H	0.158300	0.922800	0.126300	0.096231
H17	H	0.084800	0.258100	0.915400	0.099847
H18	H	0.948800	0.197100	0.723400	0.096231
H19	H	0.828300	0.132400	0.792100	0.097680
H20	H	0.841700	0.126300	0.922800	0.096231
H21	H	0.584800	0.741900	0.084600	0.099847
H22	H	0.448800	0.802900	0.276600	0.096231
H23	H	0.328300	0.867600	0.207900	0.097680
H24	H	0.341700	0.873700	0.077200	0.096231
H25	H	0.834800	0.415400	0.241900	0.099847
H26	H	0.698800	0.223400	0.302900	0.096231
H27	H	0.578300	0.292100	0.367600	0.097680
H28	H	0.591700	0.422800	0.373700	0.096231
H29	H	0.334800	0.584600	0.758100	0.099847
H30	H	0.198800	0.776600	0.697100	0.096231
H31	H	0.078300	0.707900	0.632400	0.097680
H32	H	0.091700	0.577200	0.626300	0.096231
C1	C	0.285800	0.308800	0.432500	-0.169071
C2	C	0.215500	0.268200	0.390600	0.007006
C3	C	0.219600	0.266700	0.312700	-0.177530
C4	C	0.297500	0.304200	0.275700	-0.030709
C5	C	0.369300	0.343500	0.316600	-0.141231
C6	C	0.361700	0.346300	0.395300	-0.032441
C7	C	0.277100	0.313300	0.515800	0.679661
C8	C	0.142700	0.225500	0.269200	0.712900
C9	C	0.785800	0.691200	0.567500	-0.169071
C10	C	0.715500	0.731800	0.609400	0.007006
C11	C	0.719600	0.733300	0.687300	-0.177530
C12	C	0.797500	0.695800	0.724300	-0.030709
C13	C	0.869300	0.656500	0.683400	-0.141231
C14	C	0.861700	0.653700	0.604700	-0.032441
C15	C	0.777100	0.686700	0.484200	0.679661
C16	C	0.642700	0.774500	0.730800	0.712900
C17	C	0.535800	0.067500	0.808800	-0.169071
C18	C	0.465500	0.109400	0.768200	0.007006
C19	C	0.469600	0.187300	0.766700	-0.177530
C20	C	0.547500	0.224300	0.804200	-0.030709
C21	C	0.619300	0.183400	0.843500	-0.141231
C22	C	0.611700	0.104700	0.846300	-0.032441
C23	C	0.527100	0.984200	0.813300	0.679661
C24	C	0.392700	0.230800	0.725500	0.712900
C25	C	0.035800	0.932500	0.191200	-0.169071
C26	C	0.965500	0.890600	0.231800	0.007006
C27	C	0.969600	0.812700	0.233300	-0.177530
C28	C	0.047500	0.775700	0.195800	-0.030709
C29	C	0.119300	0.816600	0.156500	-0.141231
C30	C	0.111700	0.895300	0.153700	-0.032441
C31	C	0.027100	0.015800	0.186700	0.679661
C32	C	0.892700	0.769200	0.274500	0.712900
C33	C	0.964200	0.191200	0.932500	-0.169071
C34	C	0.034500	0.231800	0.890600	0.007006
C35	C	0.030400	0.233300	0.812700	-0.177530
C36	C	0.952500	0.195800	0.775700	-0.030709
C37	C	0.880700	0.156500	0.816600	-0.141231
C38	C	0.888300	0.153700	0.895300	-0.032441
C39	C	0.972900	0.186700	0.015800	0.679661
C40	C	0.107300	0.274500	0.769200	0.712900
C41	C	0.464200	0.808800	0.067500	-0.169071
C42	C	0.534500	0.768200	0.109400	0.007006
C43	C	0.530400	0.766700	0.187300	-0.177530
C44	C	0.452500	0.804200	0.224300	-0.030709
C45	C	0.380700	0.843500	0.183400	-0.141231
C46	C	0.388300	0.846300	0.104700	-0.032441
C47	C	0.472900	0.813300	0.984200	0.679661
C48	C	0.607300	0.725500	0.230800	0.712900
C49	C	0.714200	0.432500	0.308800	-0.169071
C50	C	0.784500	0.390600	0.268200	0.007006
C51	C	0.780400	0.312700	0.266700	-0.177530
C52	C	0.702500	0.275700	0.304200	-0.030709
C53	C	0.630700	0.316600	0.343500	-0.141231
C54	C	0.638300	0.395300	0.346300	-0.032441
C55	C	0.722900	0.515800	0.313300	0.679661
C56	C	0.857300	0.269200	0.225500	0.712900
C57	C	0.214200	0.567500	0.691200	-0.169071
C58	C	0.284500	0.609400	0.731800	0.007006
C59	C	0.280400	0.687300	0.733300	-0.177530
C60	C	0.202500	0.724300	0.695800	-0.030709
C61	C	0.130700	0.683400	0.656500	-0.141231
C62	C	0.138300	0.604700	0.653700	-0.032441
C63	C	0.222900	0.484200	0.686700	0.679661
C64	C	0.357300	0.730800	0.774500	0.712900
N1	N	0.955400	0.102900	0.548100	0.871003
N2	N	0.455400	0.897100	0.451900	0.871003
N3	N	0.205400	0.951900	0.602900	0.871003
N4	N	0.705400	0.048100	0.397100	0.871003
N5	N	0.294600	0.397100	0.048100	0.871003
N6	N	0.794600	0.602900	0.951900	0.871003
N7	N	0.044600	0.548100	0.102900	0.871003
N8	N	0.544600	0.451900	0.897100	0.871003
O1	O	0.025500	0.126000	0.506000	-0.664399
O2	O	0.965700	0.105100	0.616900	-0.516979
O3	O	0.880200	0.076500	0.518200	-0.516979
O4	O	0.208100	0.277300	0.547700	-0.693477
O5	O	0.337400	0.353200	0.552100	-0.596955
O6	O	0.087600	0.179300	0.301700	-0.672088
O7	O	0.134300	0.239600	0.199000	-0.712731
O8	O	0.525500	0.874000	0.494000	-0.664399
O9	O	0.465700	0.894900	0.383100	-0.516979
O10	O	0.380200	0.923500	0.481800	-0.516979
O11	O	0.708100	0.722700	0.452300	-0.693477
O12	O	0.837400	0.646800	0.447900	-0.596955
O13	O	0.587600	0.820700	0.698300	-0.672088
O14	O	0.634300	0.760400	0.801000	-0.712731
O15	O	0.275500	0.994000	0.626000	-0.664399
O16	O	0.215700	0.883100	0.605100	-0.516979
O17	O	0.130200	0.981800	0.576500	-0.516979
O18	O	0.458100	0.952300	0.777300	-0.693477
O19	O	0.587400	0.947900	0.853200	-0.596955
O20	O	0.337600	0.198300	0.679300	-0.672088
O21	O	0.384300	0.301000	0.739600	-0.712731
O22	O	0.775500	0.006000	0.374000	-0.664399
O23	O	0.715700	0.116900	0.394900	-0.516979
O24	O	0.630200	0.018200	0.423500	-0.516979
O25	O	0.958100	0.047700	0.222700	-0.693477
O26	O	0.087400	0.052100	0.146800	-0.596955
O27	O	0.837600	0.801700	0.320700	-0.672088
O28	O	0.884300	0.699000	0.260400	-0.712731
O29	O	0.224500	0.374000	0.006000	-0.664399
O30	O	0.284300	0.394900	0.116900	-0.516979
O31	O	0.369800	0.423500	0.018200	-0.516979
O32	O	0.041900	0.222700	0.047700	-0.693477
O33	O	0.912600	0.146800	0.052100	-0.596955
O34	O	0.162400	0.320700	0.801700	-0.672088
O35	O	0.115700	0.260400	0.699000	-0.712731
O36	O	0.724500	0.626000	0.994000	-0.664399
O37	O	0.784300	0.605100	0.883100	-0.516979
O38	O	0.869800	0.576500	0.981800	-0.516979
O39	O	0.541900	0.777300	0.952300	-0.693477
O40	O	0.412600	0.853200	0.947900	-0.596955
O41	O	0.662400	0.679300	0.198300	-0.672088
O42	O	0.615700	0.739600	0.301000	-0.712731
O43	O	0.974500	0.506000	0.126000	-0.664399
O44	O	0.034300	0.616900	0.105100	-0.516979
O45	O	0.119800	0.518200	0.076500	-0.516979
O46	O	0.791900	0.547700	0.277300	-0.693477
O47	O	0.662600	0.552100	0.353200	-0.596955
O48	O	0.912400	0.301700	0.179300	-0.672088
O49	O	0.865700	0.199000	0.239600	-0.712731
O50	O	0.474500	0.494000	0.874000	-0.664399
O51	O	0.534300	0.383100	0.894900	-0.516979
O52	O	0.619800	0.481800	0.923500	-0.516979
O53	O	0.291900	0.452300	0.722700	-0.693477
O54	O	0.162600	0.447900	0.646800	-0.596955
O55	O	0.412400	0.698300	0.820700	-0.672088
O56	O	0.365700	0.801000	0.760400	-0.712731
