data_FIHXUR_clean_PM
_symmetry_space_group_name_H-M	'P1'
_cell_length_a	5.213300
_cell_length_b	18.414000
_cell_length_c	28.517000
_cell_angle_alpha	90.000000
_cell_angle_beta	90.000000
_cell_angle_gamma	90.000000
_symmetry_Int_Tables_number 1

loop_
_symmetry_equiv_pos_as_xyz
'x,y,z'

loop_
_atom_site_label
_atom_site_type_symbol
_atom_site_fract_x
_atom_site_fract_y
_atom_site_fract_z
_atom_site_charge
Cd1	Cd	0.102120	0.670250	0.659910	0.954740
Cd2	Cd	0.602120	0.329750	0.340090	0.954740
Cd3	Cd	0.102120	0.170250	0.840090	0.954740
Cd4	Cd	0.602120	0.829750	0.159910	0.954740
H1	H	0.306900	0.329100	0.818100	0.137989
H2	H	0.563500	0.371500	0.826900	0.137989
H3	H	0.155400	0.309700	0.736500	0.103645
H4	H	0.145300	0.352700	0.660700	0.103645
H5	H	0.788400	0.463500	0.682900	0.103645
H6	H	0.807000	0.419800	0.758400	0.103645
H7	H	0.615000	0.457000	0.603700	0.133459
H8	H	0.376900	0.407000	0.594400	0.133459
H9	H	0.344500	0.542900	0.731900	0.067698
H10	H	0.715500	0.642900	0.756600	0.101718
H11	H	0.575400	0.568500	0.833600	0.118569
H12	H	0.761800	0.504800	0.846800	0.118569
H13	H	0.455700	0.736500	0.873500	0.117429
H14	H	0.646100	0.732800	0.831000	0.117429
H15	H	0.464800	0.667000	0.841800	0.117429
H16	H	0.692400	0.806500	0.902800	0.117429
H17	H	0.647700	0.790200	0.956100	0.117429
H18	H	0.913400	0.820000	0.939000	0.117429
H19	H	0.978300	0.462000	0.900300	0.117429
H20	H	0.224500	0.490500	0.874700	0.117429
H21	H	0.228300	0.478200	0.929100	0.117429
H22	H	0.483700	0.589800	0.973800	0.117429
H23	H	0.275200	0.592300	0.013400	0.117429
H24	H	0.296700	0.524000	0.980800	0.117429
H25	H	0.183500	0.775300	0.983800	0.118569
H26	H	0.304600	0.705100	0.005700	0.118569
H27	H	0.968400	0.831800	0.055500	0.101718
H28	H	0.589400	0.666500	0.101300	0.067698
H29	H	0.806900	0.670900	0.181900	0.137989
H30	H	0.063500	0.628500	0.173100	0.137989
H31	H	0.655400	0.690300	0.263500	0.103645
H32	H	0.645300	0.647300	0.339300	0.103645
H33	H	0.288400	0.536500	0.317100	0.103645
H34	H	0.307000	0.580200	0.241600	0.103645
H35	H	0.115000	0.543000	0.396300	0.133459
H36	H	0.876900	0.593000	0.405600	0.133459
H37	H	0.844500	0.457100	0.268100	0.067698
H38	H	0.215500	0.357100	0.243400	0.101718
H39	H	0.075400	0.431500	0.166400	0.118569
H40	H	0.261800	0.495200	0.153200	0.118569
H41	H	0.955700	0.263500	0.126500	0.117429
H42	H	0.146100	0.267200	0.169000	0.117429
H43	H	0.964800	0.333000	0.158200	0.117429
H44	H	0.192400	0.193500	0.097200	0.117429
H45	H	0.147700	0.209800	0.043900	0.117429
H46	H	0.413400	0.180000	0.061000	0.117429
H47	H	0.478300	0.538000	0.099700	0.117429
H48	H	0.724500	0.509500	0.125300	0.117429
H49	H	0.728300	0.521800	0.070900	0.117429
H50	H	0.983700	0.410200	0.026200	0.117429
H51	H	0.775200	0.407700	0.986600	0.117429
H52	H	0.796700	0.476000	0.019200	0.117429
H53	H	0.683500	0.224700	0.016200	0.118569
H54	H	0.804600	0.294900	0.994300	0.118569
H55	H	0.468400	0.168200	0.944500	0.101718
H56	H	0.089400	0.333500	0.898700	0.067698
H57	H	0.306900	0.829100	0.681900	0.137989
H58	H	0.563500	0.871500	0.673100	0.137989
H59	H	0.155400	0.809700	0.763500	0.103645
H60	H	0.145300	0.852700	0.839300	0.103645
H61	H	0.788400	0.963500	0.817100	0.103645
H62	H	0.807000	0.919800	0.741600	0.103645
H63	H	0.615000	0.957000	0.896300	0.133459
H64	H	0.376900	0.907000	0.905600	0.133459
H65	H	0.344500	0.042900	0.768100	0.067698
H66	H	0.715500	0.142900	0.743400	0.101718
H67	H	0.575400	0.068500	0.666400	0.118569
H68	H	0.761800	0.004800	0.653200	0.118569
H69	H	0.455700	0.236500	0.626500	0.117429
H70	H	0.646100	0.232800	0.669000	0.117429
H71	H	0.464800	0.167000	0.658200	0.117429
H72	H	0.692400	0.306500	0.597200	0.117429
H73	H	0.647700	0.290200	0.543900	0.117429
H74	H	0.913400	0.320000	0.561000	0.117429
H75	H	0.978300	0.962000	0.599700	0.117429
H76	H	0.224500	0.990500	0.625300	0.117429
H77	H	0.228300	0.978200	0.570900	0.117429
H78	H	0.483700	0.089800	0.526200	0.117429
H79	H	0.275200	0.092300	0.486600	0.117429
H80	H	0.296700	0.024000	0.519200	0.117429
H81	H	0.183500	0.275300	0.516200	0.118569
H82	H	0.304600	0.205100	0.494300	0.118569
H83	H	0.968400	0.331800	0.444500	0.101718
H84	H	0.589400	0.166500	0.398700	0.067698
H85	H	0.806900	0.170900	0.318100	0.137989
H86	H	0.063500	0.128500	0.326900	0.137989
H87	H	0.655400	0.190300	0.236500	0.103645
H88	H	0.645300	0.147300	0.160700	0.103645
H89	H	0.288400	0.036500	0.182900	0.103645
H90	H	0.307000	0.080200	0.258400	0.103645
H91	H	0.115000	0.043000	0.103700	0.133459
H92	H	0.876900	0.093000	0.094400	0.133459
H93	H	0.844500	0.957100	0.231900	0.067698
H94	H	0.215500	0.857100	0.256600	0.101718
H95	H	0.075400	0.931500	0.333600	0.118569
H96	H	0.261800	0.995200	0.346800	0.118569
H97	H	0.955700	0.763500	0.373500	0.117429
H98	H	0.146100	0.767200	0.331000	0.117429
H99	H	0.964800	0.833000	0.341800	0.117429
H100	H	0.192400	0.693500	0.402800	0.117429
H101	H	0.147700	0.709800	0.456100	0.117429
H102	H	0.413400	0.680000	0.439000	0.117429
H103	H	0.478300	0.038000	0.400300	0.117429
H104	H	0.724500	0.009500	0.374700	0.117429
H105	H	0.728300	0.021800	0.429100	0.117429
H106	H	0.983700	0.910200	0.473800	0.117429
H107	H	0.775200	0.907700	0.513400	0.117429
H108	H	0.796700	0.976000	0.480800	0.117429
H109	H	0.683500	0.724700	0.483800	0.118569
H110	H	0.804600	0.794900	0.505700	0.118569
H111	H	0.468400	0.668200	0.555500	0.101718
H112	H	0.089400	0.833500	0.601300	0.067698
C1	C	0.624800	0.263700	0.811900	0.737225
C2	C	0.481900	0.335300	0.807200	-0.397706
C3	C	0.478900	0.362100	0.756200	0.114424
C4	C	0.282900	0.341100	0.726000	-0.133963
C5	C	0.277600	0.366900	0.680600	-0.133963
C6	C	0.467300	0.414100	0.663700	0.109872
C7	C	0.659700	0.432600	0.693500	-0.133963
C8	C	0.670500	0.406900	0.739200	-0.133963
C9	C	0.445100	0.444300	0.614900	-0.377663
C10	C	0.272900	0.511400	0.612200	0.703589
C11	C	0.195100	0.557900	0.746900	0.262853
C12	C	0.857200	0.612500	0.759300	0.149686
C13	C	0.753700	0.556100	0.839000	-0.067717
C14	C	0.855600	0.600500	0.880100	-0.070596
C15	C	0.770200	0.672500	0.887300	0.047959
C16	C	0.565000	0.705200	0.855400	-0.337163
C17	C	0.864300	0.712900	0.923900	0.047959
C18	C	0.771000	0.789300	0.931100	-0.337163
C19	C	0.042700	0.682100	0.954200	-0.070596
C20	C	0.124300	0.610100	0.948100	0.047959
C21	C	0.037500	0.570000	0.910500	0.047959
C22	C	0.125000	0.493300	0.903000	-0.337163
C23	C	0.312000	0.575900	0.982100	-0.337163
C24	C	0.145800	0.726600	0.994700	-0.067717
C25	C	0.903500	0.785200	0.059900	0.149686
C26	C	0.701100	0.695500	0.084100	0.262853
C27	C	0.124800	0.736300	0.188100	0.737225
C28	C	0.981900	0.664700	0.192800	-0.397706
C29	C	0.978900	0.637900	0.243800	0.114424
C30	C	0.782900	0.658900	0.274000	-0.133963
C31	C	0.777600	0.633100	0.319400	-0.133963
C32	C	0.967300	0.585900	0.336300	0.109872
C33	C	0.159700	0.567400	0.306500	-0.133963
C34	C	0.170500	0.593100	0.260800	-0.133963
C35	C	0.945100	0.555700	0.385100	-0.377663
C36	C	0.772900	0.488600	0.387800	0.703589
C37	C	0.695100	0.442100	0.253100	0.262853
C38	C	0.357200	0.387500	0.240700	0.149686
C39	C	0.253700	0.443900	0.161000	-0.067717
C40	C	0.355600	0.399500	0.119900	-0.070596
C41	C	0.270200	0.327500	0.112700	0.047959
C42	C	0.065000	0.294800	0.144600	-0.337163
C43	C	0.364300	0.287100	0.076100	0.047959
C44	C	0.271000	0.210700	0.068900	-0.337163
C45	C	0.542700	0.317900	0.045800	-0.070596
C46	C	0.624300	0.389900	0.051900	0.047959
C47	C	0.537500	0.430000	0.089500	0.047959
C48	C	0.625000	0.506700	0.097000	-0.337163
C49	C	0.812000	0.424100	0.017900	-0.337163
C50	C	0.645800	0.273400	0.005300	-0.067717
C51	C	0.403500	0.214800	0.940100	0.149686
C52	C	0.201100	0.304500	0.915900	0.262853
C53	C	0.624800	0.763700	0.688100	0.737225
C54	C	0.481900	0.835300	0.692800	-0.397706
C55	C	0.478900	0.862100	0.743800	0.114424
C56	C	0.282900	0.841100	0.774000	-0.133963
C57	C	0.277600	0.866900	0.819400	-0.133963
C58	C	0.467300	0.914100	0.836300	0.109872
C59	C	0.659700	0.932600	0.806500	-0.133963
C60	C	0.670500	0.906900	0.760800	-0.133963
C61	C	0.445100	0.944300	0.885100	-0.377663
C62	C	0.272900	0.011400	0.887800	0.703589
C63	C	0.195100	0.057900	0.753100	0.262853
C64	C	0.857200	0.112500	0.740700	0.149686
C65	C	0.753700	0.056100	0.661000	-0.067717
C66	C	0.855600	0.100500	0.619900	-0.070596
C67	C	0.770200	0.172500	0.612700	0.047959
C68	C	0.565000	0.205200	0.644600	-0.337163
C69	C	0.864300	0.212900	0.576100	0.047959
C70	C	0.771000	0.289300	0.568900	-0.337163
C71	C	0.042700	0.182100	0.545800	-0.070596
C72	C	0.124300	0.110100	0.551900	0.047959
C73	C	0.037500	0.070000	0.589500	0.047959
C74	C	0.125000	0.993300	0.597000	-0.337163
C75	C	0.312000	0.075900	0.517900	-0.337163
C76	C	0.145800	0.226600	0.505300	-0.067717
C77	C	0.903500	0.285200	0.440100	0.149686
C78	C	0.701100	0.195500	0.415900	0.262853
C79	C	0.124800	0.236300	0.311900	0.737225
C80	C	0.981900	0.164700	0.307200	-0.397706
C81	C	0.978900	0.137900	0.256200	0.114424
C82	C	0.782900	0.158900	0.226000	-0.133963
C83	C	0.777600	0.133100	0.180600	-0.133963
C84	C	0.967300	0.085900	0.163700	0.109872
C85	C	0.159700	0.067400	0.193500	-0.133963
C86	C	0.170500	0.093100	0.239200	-0.133963
C87	C	0.945100	0.055700	0.114900	-0.377663
C88	C	0.772900	0.988600	0.112200	0.703589
C89	C	0.695100	0.942100	0.246900	0.262853
C90	C	0.357200	0.887500	0.259300	0.149686
C91	C	0.253700	0.943900	0.339000	-0.067717
C92	C	0.355600	0.899500	0.380100	-0.070596
C93	C	0.270200	0.827500	0.387300	0.047959
C94	C	0.065000	0.794800	0.355400	-0.337163
C95	C	0.364300	0.787100	0.423900	0.047959
C96	C	0.271000	0.710700	0.431100	-0.337163
C97	C	0.542700	0.817900	0.454200	-0.070596
C98	C	0.624300	0.889900	0.448100	0.047959
C99	C	0.537500	0.930000	0.410500	0.047959
C100	C	0.625000	0.006700	0.403000	-0.337163
C101	C	0.812000	0.924100	0.482100	-0.337163
C102	C	0.645800	0.773400	0.494700	-0.067717
C103	C	0.403500	0.714800	0.559900	0.149686
C104	C	0.201100	0.804500	0.584100	0.262853
N1	N	0.740300	0.767100	0.093780	-0.446629
N2	N	0.960700	0.730200	0.033800	0.162892
N3	N	0.832700	0.671100	0.048900	-0.386629
N4	N	0.902900	0.569500	0.795900	0.162892
N5	N	0.128200	0.532700	0.787940	-0.386629
N6	N	0.036600	0.606600	0.727490	-0.446629
N7	N	0.240300	0.232900	0.906220	-0.446629
N8	N	0.460700	0.269800	0.966200	0.162892
N9	N	0.332700	0.328900	0.951100	-0.386629
N10	N	0.402900	0.430500	0.204100	0.162892
N11	N	0.628200	0.467300	0.212060	-0.386629
N12	N	0.536600	0.393400	0.272510	-0.446629
N13	N	0.740300	0.267100	0.406220	-0.446629
N14	N	0.960700	0.230200	0.466200	0.162892
N15	N	0.832700	0.171100	0.451100	-0.386629
N16	N	0.902900	0.069500	0.704100	0.162892
N17	N	0.128200	0.032700	0.712060	-0.386629
N18	N	0.036600	0.106600	0.772510	-0.446629
N19	N	0.240300	0.732900	0.593780	-0.446629
N20	N	0.460700	0.769800	0.533800	0.162892
N21	N	0.332700	0.828900	0.548900	-0.386629
N22	N	0.402900	0.930500	0.295900	0.162892
N23	N	0.628200	0.967300	0.287940	-0.386629
N24	N	0.536600	0.893400	0.227490	-0.446629
O1	O	0.083800	0.508200	0.586200	-0.642376
O2	O	0.328400	0.564300	0.637470	-0.640184
O3	O	0.860900	0.267600	0.819000	-0.628353
O4	O	0.500500	0.205000	0.808200	-0.628353
O5	O	0.583800	0.491800	0.413800	-0.642376
O6	O	0.828400	0.435700	0.362530	-0.640184
O7	O	0.360900	0.732400	0.181000	-0.628353
O8	O	0.000500	0.795000	0.191800	-0.628353
O9	O	0.083800	0.008200	0.913800	-0.642376
O10	O	0.328400	0.064300	0.862530	-0.640184
O11	O	0.860900	0.767600	0.681000	-0.628353
O12	O	0.500500	0.705000	0.691800	-0.628353
O13	O	0.583800	0.991800	0.086200	-0.642376
O14	O	0.828400	0.935700	0.137470	-0.640184
O15	O	0.360900	0.232400	0.319000	-0.628353
O16	O	0.000500	0.295000	0.308200	-0.628353
