data_FIKQIB_clean_PM
_symmetry_space_group_name_H-M	'P1'
_cell_length_a	9.415300
_cell_length_b	13.339000
_cell_length_c	13.415000
_cell_angle_alpha	98.420002
_cell_angle_beta	98.759997
_cell_angle_gamma	99.070002
_symmetry_Int_Tables_number 1

loop_
_symmetry_equiv_pos_as_xyz
'x,y,z'

loop_
_atom_site_label
_atom_site_type_symbol
_atom_site_fract_x
_atom_site_fract_y
_atom_site_fract_z
_atom_site_charge
P1	P	0.809000	0.459800	0.374800	0.849645
P2	P	0.691400	0.125000	0.040100	0.849645
P3	P	0.191000	0.540200	0.625200	0.849645
P4	P	0.308600	0.875000	0.959900	0.849645
H1	H	0.513900	0.372500	0.314800	0.085144
H2	H	0.297200	0.427800	0.306500	0.104538
H3	H	0.293500	0.603900	0.354500	0.100613
H4	H	0.507700	0.712300	0.430100	0.104538
H5	H	0.723400	0.659000	0.438800	0.085144
H6	H	0.864700	0.649400	0.290100	0.085144
H7	H	0.027000	0.690900	0.169200	0.104538
H8	H	0.114500	0.569100	0.079000	0.100613
H9	H	0.085500	0.408400	0.107100	0.104538
H10	H	0.932100	0.357600	0.222500	0.085144
H11	H	0.881000	0.511000	0.550500	0.132084
H12	H	0.954900	0.595100	0.493100	0.132084
H13	H	0.772200	0.069600	0.841500	0.085144
H14	H	0.997200	0.066300	0.787700	0.104538
H15	H	0.213600	0.146800	0.898600	0.100613
H16	H	0.204800	0.191800	0.073100	0.104538
H17	H	0.982700	0.182800	0.127500	0.085144
H18	H	0.569600	0.280300	0.144100	0.085144
H19	H	0.426000	0.397000	0.090600	0.104538
H20	H	0.386900	0.418500	0.925700	0.100613
H21	H	0.467600	0.324200	0.804800	0.104538
H22	H	0.638800	0.209800	0.853500	0.085144
H23	H	0.620200	0.948800	0.990900	0.132084
H24	H	0.549500	0.005800	0.905700	0.132084
H25	H	0.486100	0.627500	0.685200	0.085144
H26	H	0.702800	0.572200	0.693500	0.104538
H27	H	0.706500	0.396100	0.645500	0.100613
H28	H	0.492300	0.287700	0.569900	0.104538
H29	H	0.276600	0.341000	0.561200	0.085144
H30	H	0.135300	0.350600	0.709900	0.085144
H31	H	0.973000	0.309100	0.830800	0.104538
H32	H	0.885500	0.430900	0.921000	0.100613
H33	H	0.914500	0.591600	0.892900	0.104538
H34	H	0.067900	0.642400	0.777500	0.085144
H35	H	0.119000	0.489000	0.449500	0.132084
H36	H	0.045100	0.404900	0.506900	0.132084
H37	H	0.227800	0.930400	0.158500	0.085144
H38	H	0.002800	0.933700	0.212300	0.104538
H39	H	0.786400	0.853200	0.101400	0.100613
H40	H	0.795200	0.808200	0.926900	0.104538
H41	H	0.017300	0.817200	0.872500	0.085144
H42	H	0.430400	0.719700	0.855900	0.085144
H43	H	0.574000	0.603000	0.909400	0.104538
H44	H	0.613100	0.581500	0.074300	0.100613
H45	H	0.532400	0.675800	0.195200	0.104538
H46	H	0.361200	0.790200	0.146500	0.085144
H47	H	0.379800	0.051200	0.009100	0.132084
H48	H	0.450500	0.994200	0.094300	0.132084
Pb1	Pb	0.750400	0.159610	0.340360	0.713086
Pb2	Pb	0.249600	0.840390	0.659640	0.713086
C1	C	0.643300	0.511800	0.372300	-0.301221
C2	C	0.512500	0.442600	0.336000	-0.004652
C3	C	0.385000	0.475100	0.331100	-0.115554
C4	C	0.382000	0.579300	0.362400	-0.055566
C5	C	0.509000	0.643200	0.404000	-0.115554
C6	C	0.637000	0.612000	0.409300	-0.004652
C7	C	0.900700	0.497400	0.273500	-0.301221
C8	C	0.912000	0.600600	0.256700	-0.004652
C9	C	0.005000	0.622800	0.180900	-0.115554
C10	C	0.060000	0.551000	0.128800	-0.055566
C11	C	0.041000	0.457000	0.143500	-0.115554
C12	C	0.953000	0.427300	0.215700	-0.004652
C13	C	0.931000	0.520900	0.492800	-0.354151
C14	C	0.858000	0.127900	0.989100	-0.301221
C15	C	0.860000	0.093800	0.888400	-0.004652
C16	C	0.995000	0.095000	0.855600	-0.115554
C17	C	0.124000	0.137900	0.922000	-0.055566
C18	C	0.118000	0.167800	0.025300	-0.115554
C19	C	0.985000	0.162500	0.057800	-0.004652
C20	C	0.597900	0.227400	0.001700	-0.301221
C21	C	0.549000	0.286600	0.074700	-0.004652
C22	C	0.466000	0.356900	0.043000	-0.115554
C23	C	0.442000	0.369100	0.944000	-0.055566
C24	C	0.492000	0.316200	0.873400	-0.115554
C25	C	0.589000	0.242800	0.900200	-0.004652
C26	C	0.571000	0.006800	0.979600	-0.354151
C27	C	0.356700	0.488200	0.627700	-0.301221
C28	C	0.487500	0.557400	0.664000	-0.004652
C29	C	0.615000	0.524900	0.668900	-0.115554
C30	C	0.618000	0.420700	0.637600	-0.055566
C31	C	0.491000	0.356800	0.596000	-0.115554
C32	C	0.363000	0.388000	0.590700	-0.004652
C33	C	0.099300	0.502600	0.726500	-0.301221
C34	C	0.088000	0.399400	0.743300	-0.004652
C35	C	0.995000	0.377200	0.819100	-0.115554
C36	C	0.940000	0.449000	0.871200	-0.055566
C37	C	0.959000	0.543000	0.856500	-0.115554
C38	C	0.047000	0.572700	0.784300	-0.004652
C39	C	0.069000	0.479100	0.507200	-0.354151
C40	C	0.142000	0.872100	0.010900	-0.301221
C41	C	0.140000	0.906200	0.111600	-0.004652
C42	C	0.005000	0.905000	0.144400	-0.115554
C43	C	0.876000	0.862100	0.078000	-0.055566
C44	C	0.882000	0.832200	0.974700	-0.115554
C45	C	0.015000	0.837500	0.942200	-0.004652
C46	C	0.402100	0.772600	0.998300	-0.301221
C47	C	0.451000	0.713400	0.925300	-0.004652
C48	C	0.534000	0.643100	0.957000	-0.115554
C49	C	0.558000	0.630900	0.056000	-0.055566
C50	C	0.508000	0.683800	0.126600	-0.115554
C51	C	0.411000	0.757200	0.099800	-0.004652
C52	C	0.429000	0.993200	0.020400	-0.354151
I1	I	0.421700	0.130810	0.322650	-0.266056
I2	I	0.078400	0.177560	0.369420	-0.266056
I3	I	0.578300	0.869190	0.677350	-0.266056
I4	I	0.921600	0.822440	0.630580	-0.266056
O1	O	0.780700	0.344500	0.366400	-0.615708
O2	O	0.717400	0.134100	0.156100	-0.615708
O3	O	0.219300	0.655500	0.633600	-0.615708
O4	O	0.282600	0.865900	0.843900	-0.615708
