data_FINQOK_clean_PM
_symmetry_space_group_name_H-M	'P1'
_cell_length_a	12.042000
_cell_length_b	13.967000
_cell_length_c	22.754000
_cell_angle_alpha	95.801999
_cell_angle_beta	105.211000
_cell_angle_gamma	104.118000
_symmetry_Int_Tables_number 1

loop_
_symmetry_equiv_pos_as_xyz
'x,y,z'

loop_
_atom_site_label
_atom_site_type_symbol
_atom_site_fract_x
_atom_site_fract_y
_atom_site_fract_z
_atom_site_charge
Ag1	Ag	0.685850	0.924800	0.059730	0.178039
Ag2	Ag	0.526850	0.348100	0.196870	0.370199
Ag3	Ag	0.186780	0.670530	0.566190	0.003898
Ag4	Ag	0.102180	0.382110	0.325320	0.369987
Ag5	Ag	0.652170	0.162400	0.498870	0.241177
Ag6	Ag	0.644280	0.513870	0.354170	0.237931
Ag7	Ag	0.985040	0.559290	0.418010	0.286640
Ag8	Ag	0.314150	0.075200	0.940270	0.178039
Ag9	Ag	0.473150	0.651900	0.803130	0.370199
Ag10	Ag	0.813220	0.329470	0.433810	0.003898
Ag11	Ag	0.897820	0.617890	0.674680	0.369987
Ag12	Ag	0.347830	0.837600	0.501130	0.241177
Ag13	Ag	0.355720	0.486130	0.645830	0.237931
Ag14	Ag	0.014960	0.440710	0.581990	0.286640
H1	H	0.760300	0.866800	0.412000	0.122329
H2	H	0.675700	0.996600	0.415100	0.073550
H3	H	0.953300	0.975000	0.587100	0.122329
H4	H	0.860900	0.100700	0.587400	0.073550
H5	H	0.060100	0.348900	0.193200	0.120196
H6	H	0.857600	0.029900	0.192000	0.073172
H7	H	0.499600	0.452100	0.559300	0.122329
H8	H	0.642100	0.129000	0.071000	0.073172
H9	H	0.633000	0.363200	0.559800	0.073550
H10	H	0.202700	0.441500	0.006500	0.059295
H11	H	0.332100	0.590900	0.015400	0.120196
H12	H	0.905100	0.171500	0.264800	0.122329
H13	H	0.155200	0.130000	0.063600	0.059295
H14	H	0.685900	0.275600	0.138100	0.122329
H15	H	0.270300	0.258100	0.412000	0.122329
H16	H	0.292700	0.205100	0.156100	0.120196
H17	H	0.297000	0.322200	0.871700	0.059295
H18	H	0.431200	0.473100	0.874000	0.120196
H19	H	0.925100	0.264700	0.100800	0.059295
H20	H	0.402900	0.166100	0.419300	0.073550
H21	H	0.239700	0.133200	0.588000	0.122329
H22	H	0.324300	0.003400	0.584900	0.073550
H23	H	0.046700	0.025000	0.412900	0.122329
H24	H	0.139100	0.899300	0.412600	0.073550
H25	H	0.939900	0.651100	0.806800	0.120196
H26	H	0.142400	0.970100	0.808000	0.073172
H27	H	0.500400	0.547900	0.440700	0.122329
H28	H	0.357900	0.871000	0.929000	0.073172
H29	H	0.367000	0.636800	0.440200	0.073550
H30	H	0.797300	0.558500	0.993500	0.059295
H31	H	0.667900	0.409100	0.984600	0.120196
H32	H	0.094900	0.828500	0.735200	0.122329
H33	H	0.844800	0.870000	0.936400	0.059295
H34	H	0.314100	0.724400	0.861900	0.122329
H35	H	0.729700	0.741900	0.588000	0.122329
H36	H	0.707300	0.794900	0.843900	0.120196
H37	H	0.703000	0.677800	0.128300	0.059295
H38	H	0.568800	0.526900	0.126000	0.120196
H39	H	0.074900	0.735300	0.899200	0.059295
H40	H	0.597100	0.833900	0.580700	0.073550
C1	C	0.782300	0.913900	0.448000	-0.167552
C2	C	0.732700	0.991800	0.450500	0.141073
C3	C	0.867100	0.907500	0.501400	0.033064
C4	C	0.895600	0.977600	0.551400	-0.167552
C5	C	0.841200	0.054200	0.551400	0.141073
C6	C	0.080100	0.303900	0.167600	-0.191672
C7	C	0.283700	0.342500	0.242700	0.298997
C8	C	0.821500	0.080100	0.181700	0.129885
C9	C	0.478700	0.393500	0.530500	-0.165531
C10	C	0.695500	0.137600	0.110300	0.129885
C11	C	0.557800	0.340300	0.530600	0.141073
C12	C	0.249800	0.448600	0.979800	0.188567
C13	C	0.365600	0.361000	0.487400	0.027067
C14	C	0.191600	0.286800	0.184600	0.008320
C15	C	0.484300	0.648300	0.951700	0.309392
C16	C	0.281300	0.421900	0.488200	0.296032
C17	C	0.813000	0.326300	0.256200	0.298694
C18	C	0.326300	0.537300	0.985800	-0.193241
C19	C	0.851500	0.164700	0.225800	-0.165015
C20	C	0.923700	0.824000	0.499000	0.307400
C21	C	0.399300	0.548500	0.945600	0.026187
C22	C	0.136200	0.173200	0.090800	0.188567
C23	C	0.720800	0.225500	0.150500	-0.165015
C24	C	0.342000	0.278200	0.444000	-0.165531
C25	C	0.218800	0.218700	0.145000	-0.191672
C26	C	0.797900	0.239600	0.209300	0.027067
C27	C	0.304800	0.378000	0.900100	0.188567
C28	C	0.386200	0.467500	0.901700	-0.193241
C29	C	0.000300	0.253600	0.112500	0.188567
C30	C	0.423100	0.225400	0.447400	0.141073
C31	C	0.217700	0.086100	0.552000	-0.167552
C32	C	0.267300	0.008200	0.549500	0.141073
C33	C	0.132900	0.092500	0.498600	0.033064
C34	C	0.104400	0.022400	0.448600	-0.167552
C35	C	0.158800	0.945800	0.448600	0.141073
C36	C	0.919900	0.696100	0.832400	-0.191672
C37	C	0.716300	0.657500	0.757300	0.298997
C38	C	0.178500	0.919900	0.818300	0.129885
C39	C	0.521300	0.606500	0.469500	-0.165531
C40	C	0.304500	0.862400	0.889700	0.129885
C41	C	0.442200	0.659700	0.469400	0.141073
C42	C	0.750200	0.551400	0.020200	0.188567
C43	C	0.634400	0.639000	0.512600	0.027067
C44	C	0.808400	0.713200	0.815400	0.008320
C45	C	0.515700	0.351700	0.048300	0.309392
C46	C	0.718700	0.578100	0.511800	0.296032
C47	C	0.187000	0.673700	0.743800	0.298694
C48	C	0.673700	0.462700	0.014200	-0.193241
C49	C	0.148500	0.835300	0.774200	-0.165015
C50	C	0.076300	0.176000	0.501000	0.307400
C51	C	0.600700	0.451500	0.054400	0.026187
C52	C	0.863800	0.826800	0.909200	0.188567
C53	C	0.279200	0.774500	0.849500	-0.165015
C54	C	0.658000	0.721800	0.556000	-0.165531
C55	C	0.781200	0.781300	0.855000	-0.191672
C56	C	0.202100	0.760400	0.790700	0.027067
C57	C	0.695200	0.622000	0.099900	0.188567
C58	C	0.613800	0.532500	0.098300	-0.193241
C59	C	0.999700	0.746400	0.887500	0.188567
C60	C	0.576900	0.774600	0.552600	0.141073
N1	N	0.744000	0.064900	0.125000	-0.324353
N2	N	0.449600	0.418200	0.311100	0.019543
N3	N	0.401500	0.363400	0.253100	-0.263325
N4	N	0.258600	0.379000	0.292400	-0.231426
N5	N	0.722000	0.369100	0.256700	-0.273089
N6	N	0.765000	0.440500	0.306700	0.018584
N7	N	0.188700	0.423100	0.440600	-0.271613
N8	N	0.196600	0.523900	0.521300	0.073765
N9	N	0.598800	0.777400	0.933500	-0.165724
N10	N	0.364800	0.428000	0.335100	-0.128707
N11	N	0.878000	0.441000	0.334900	-0.035027
N12	N	0.285700	0.480700	0.539500	-0.255773
N13	N	0.971500	0.696400	0.469000	-0.060602
N14	N	0.011700	0.814100	0.548900	-0.351118
N15	N	0.026500	0.188300	0.074500	-0.434175
N16	N	0.761900	0.062100	0.501200	-0.332979
N17	N	0.235500	0.369300	0.938800	-0.434175
N18	N	0.525700	0.687000	0.907100	-0.218259
N19	N	0.532700	0.255400	0.490100	-0.332979
N20	N	0.909100	0.373300	0.304200	-0.277308
N21	N	0.137800	0.490400	0.463200	-0.091921
N22	N	0.897300	0.753300	0.451200	-0.351372
N23	N	0.526900	0.712800	0.004800	-0.365457
N24	N	0.598400	0.791000	0.991700	0.032491
N25	N	0.036500	0.733800	0.525800	0.030116
N26	N	0.256000	0.935100	0.875000	-0.324353
N27	N	0.550400	0.581800	0.688900	0.019543
N28	N	0.598500	0.636600	0.746900	-0.263325
N29	N	0.741400	0.621000	0.707600	-0.231426
N30	N	0.278000	0.630900	0.743300	-0.273089
N31	N	0.235000	0.559500	0.693300	0.018584
N32	N	0.811300	0.576900	0.559400	-0.271613
N33	N	0.803400	0.476100	0.478700	0.073765
N34	N	0.401200	0.222600	0.066500	-0.165724
N35	N	0.635200	0.572000	0.664900	-0.128707
N36	N	0.122000	0.559000	0.665100	-0.035027
N37	N	0.714300	0.519300	0.460500	-0.255773
N38	N	0.028500	0.303600	0.531000	-0.060602
N39	N	0.988300	0.185900	0.451100	-0.351118
N40	N	0.973500	0.811700	0.925500	-0.434175
N41	N	0.238100	0.937900	0.498800	-0.332979
N42	N	0.764500	0.630700	0.061200	-0.434175
N43	N	0.474300	0.313000	0.092900	-0.218259
N44	N	0.467300	0.744600	0.509900	-0.332979
N45	N	0.090900	0.626700	0.695800	-0.277308
N46	N	0.862200	0.509600	0.536800	-0.091921
N47	N	0.102700	0.246700	0.548800	-0.351372
N48	N	0.473100	0.287200	0.995200	-0.365457
N49	N	0.401600	0.209000	0.008300	0.032491
N50	N	0.963500	0.266200	0.474200	0.030116
