data_FIVNAZ_clean_PM
_symmetry_space_group_name_H-M	'P1'
_cell_length_a	8.165000
_cell_length_b	8.215000
_cell_length_c	8.214999
_cell_angle_alpha	85.816901
_cell_angle_beta	62.347202
_cell_angle_gamma	62.346999
_symmetry_Int_Tables_number 1

loop_
_symmetry_equiv_pos_as_xyz
'x,y,z'

loop_
_atom_site_label
_atom_site_type_symbol
_atom_site_fract_x
_atom_site_fract_y
_atom_site_fract_z
_atom_site_charge
Ho1	Ho	0.750000	0.933510	0.066490	2.220475
Ho2	Ho	0.250000	0.066490	0.933510	2.220475
C1	C	0.943580	0.493050	0.949030	0.578190
C2	C	0.556420	0.050970	0.506950	0.578190
C3	C	0.056420	0.506950	0.050970	0.578190
C4	C	0.443580	0.949030	0.493050	0.578190
O1	O	0.802700	0.643700	0.945580	-0.643508
O2	O	0.996930	0.667270	0.121410	-0.643508
O3	O	0.697300	0.054420	0.356300	-0.643508
O4	O	0.503070	0.878590	0.332730	-0.643508
O5	O	0.197300	0.356300	0.054420	-0.643508
O6	O	0.003070	0.332730	0.878590	-0.643508
O7	O	0.302700	0.945580	0.643700	-0.643508
O8	O	0.496930	0.121410	0.667270	-0.643508
F1	F	0.000000	0.000000	0.000000	-0.802824
F2	F	0.500000	0.000000	0.000000	-0.802824
