data_FULQUZ_clean_PM
_symmetry_space_group_name_H-M	'P1'
_cell_length_a	11.227000
_cell_length_b	17.434000
_cell_length_c	17.980000
_cell_angle_alpha	90.000000
_cell_angle_beta	90.000000
_cell_angle_gamma	90.000000
_symmetry_Int_Tables_number 1

loop_
_symmetry_equiv_pos_as_xyz
'x,y,z'

loop_
_atom_site_label
_atom_site_type_symbol
_atom_site_fract_x
_atom_site_fract_y
_atom_site_fract_z
_atom_site_charge
La1	La	0.142600	0.184200	0.480340	2.167961
La2	La	0.318510	0.967190	0.479900	2.157452
La3	La	0.857400	0.815800	0.980340	2.167961
La4	La	0.681490	0.032810	0.979900	2.157452
La5	La	0.357400	0.684200	0.480340	2.167961
La6	La	0.181490	0.467190	0.479900	2.157452
La7	La	0.642600	0.315800	0.980340	2.167961
La8	La	0.818510	0.532810	0.979900	2.157452
H1	H	0.085600	0.882000	0.669100	0.113144
H2	H	0.986300	0.863700	0.789800	0.113144
H3	H	0.950100	0.208600	0.673000	0.113144
H4	H	0.862800	0.224300	0.798200	0.113144
H5	H	0.029800	0.466000	0.288600	0.113144
H6	H	0.929900	0.481000	0.168600	0.113144
H7	H	0.153000	0.821000	0.461000	0.366854
H8	H	0.914400	0.118000	0.169100	0.113144
H9	H	0.013700	0.136300	0.289800	0.113144
H10	H	0.049900	0.791400	0.173000	0.113144
H11	H	0.137200	0.775700	0.298200	0.113144
H12	H	0.970200	0.534000	0.788600	0.113144
H13	H	0.070100	0.519000	0.668600	0.113144
H14	H	0.847000	0.179000	0.961000	0.366854
H15	H	0.414400	0.382000	0.669100	0.113144
H16	H	0.513700	0.363700	0.789800	0.113144
H17	H	0.549900	0.708600	0.673000	0.113144
H18	H	0.637200	0.724300	0.798200	0.113144
H19	H	0.470200	0.966000	0.288600	0.113144
H20	H	0.570100	0.981000	0.168600	0.113144
H21	H	0.347000	0.321000	0.461000	0.366854
H22	H	0.585600	0.618000	0.169100	0.113144
H23	H	0.486300	0.636300	0.289800	0.113144
H24	H	0.450100	0.291400	0.173000	0.113144
H25	H	0.362800	0.275700	0.298200	0.113144
H26	H	0.529800	0.034000	0.788600	0.113144
H27	H	0.429900	0.019000	0.668600	0.113144
H28	H	0.653000	0.679000	0.961000	0.366854
C1	C	0.033700	0.995800	0.668100	-0.193156
C2	C	0.044500	0.921000	0.694400	-0.048960
C3	C	0.986500	0.910300	0.763500	-0.056429
C4	C	0.930700	0.975700	0.788000	-0.208651
C5	C	0.081400	0.025300	0.594700	0.762309
C6	C	0.862100	0.986900	0.856800	0.743762
C7	C	0.020700	0.316700	0.679500	-0.193156
C8	C	0.958100	0.253300	0.701900	-0.048960
C9	C	0.906800	0.262500	0.773500	-0.048960
C10	C	0.929300	0.334300	0.802200	-0.193156
C11	C	0.075400	0.331300	0.605200	0.762309
C12	C	0.885500	0.365200	0.873900	0.762309
C13	C	0.012800	0.350500	0.281600	-0.193156
C14	C	0.001200	0.424600	0.260300	-0.048960
C15	C	0.942600	0.433600	0.192300	-0.056429
C16	C	0.906300	0.364300	0.164800	-0.210459
C17	C	0.060700	0.324000	0.354500	0.762309
C18	C	0.835200	0.353400	0.097000	0.752995
C19	C	0.966300	0.004200	0.168100	-0.193156
C20	C	0.955500	0.079000	0.194400	-0.048960
C21	C	0.013500	0.089700	0.263500	-0.056429
C22	C	0.069300	0.024300	0.288000	-0.208651
C23	C	0.918600	0.974700	0.094700	0.762309
C24	C	0.137900	0.013100	0.356800	0.743762
C25	C	0.979300	0.683300	0.179500	-0.193156
C26	C	0.041900	0.746700	0.201900	-0.048960
C27	C	0.093200	0.737500	0.273500	-0.048960
C28	C	0.070700	0.665700	0.302200	-0.193156
C29	C	0.924600	0.668700	0.105200	0.762309
C30	C	0.114500	0.634800	0.373900	0.762309
C31	C	0.987200	0.649500	0.781600	-0.193156
C32	C	0.998800	0.575400	0.760300	-0.048960
C33	C	0.057400	0.566400	0.692300	-0.056429
C34	C	0.093700	0.635700	0.664800	-0.210459
C35	C	0.939300	0.676000	0.854500	0.762309
C36	C	0.164800	0.646600	0.597000	0.752995
C37	C	0.466300	0.495800	0.668100	-0.193156
C38	C	0.455500	0.421000	0.694400	-0.048960
C39	C	0.513500	0.410300	0.763500	-0.056429
C40	C	0.569300	0.475700	0.788000	-0.208651
C41	C	0.418600	0.525300	0.594700	0.762309
C42	C	0.637900	0.486900	0.856800	0.743762
C43	C	0.479300	0.816700	0.679500	-0.193156
C44	C	0.541900	0.753300	0.701900	-0.048960
C45	C	0.593200	0.762500	0.773500	-0.048960
C46	C	0.570700	0.834300	0.802200	-0.193156
C47	C	0.424600	0.831300	0.605200	0.762309
C48	C	0.614500	0.865200	0.873900	0.762309
C49	C	0.487200	0.850500	0.281600	-0.193156
C50	C	0.498800	0.924600	0.260300	-0.048960
C51	C	0.557400	0.933600	0.192300	-0.056429
C52	C	0.593700	0.864300	0.164800	-0.210459
C53	C	0.439300	0.824000	0.354500	0.762309
C54	C	0.664800	0.853400	0.097000	0.752995
C55	C	0.533700	0.504200	0.168100	-0.193156
C56	C	0.544500	0.579000	0.194400	-0.048960
C57	C	0.486500	0.589700	0.263500	-0.056429
C58	C	0.430700	0.524300	0.288000	-0.208651
C59	C	0.581400	0.474700	0.094700	0.762309
C60	C	0.362100	0.513100	0.356800	0.743762
C61	C	0.520700	0.183300	0.179500	-0.193156
C62	C	0.458100	0.246700	0.201900	-0.048960
C63	C	0.406800	0.237500	0.273500	-0.048960
C64	C	0.429300	0.165700	0.302200	-0.193156
C65	C	0.575400	0.168700	0.105200	0.762309
C66	C	0.385500	0.134800	0.373900	0.762309
C67	C	0.512800	0.149500	0.781600	-0.193156
C68	C	0.501200	0.075400	0.760300	-0.048960
C69	C	0.442600	0.066400	0.692300	-0.056429
C70	C	0.406300	0.135700	0.664800	-0.210459
C71	C	0.560700	0.176000	0.854500	0.762309
C72	C	0.335200	0.146600	0.597000	0.752995
S1	S	0.953700	0.051150	0.727780	0.172679
S2	S	0.016500	0.387920	0.745200	0.174386
S3	S	0.947200	0.289310	0.219720	0.172679
S4	S	0.046300	0.948850	0.227780	0.172679
S5	S	0.983500	0.612080	0.245200	0.174386
S6	S	0.052800	0.710690	0.719720	0.172679
S7	S	0.546300	0.551150	0.727780	0.172679
S8	S	0.483500	0.887920	0.745200	0.174386
S9	S	0.552800	0.789310	0.219720	0.172679
S10	S	0.453700	0.448850	0.227780	0.172679
S11	S	0.516500	0.112080	0.245200	0.174386
S12	S	0.447200	0.210690	0.719720	0.172679
O1	O	0.134400	0.977500	0.554500	-0.664412
O2	O	0.062400	0.094400	0.581500	-0.691936
O3	O	0.857700	0.936000	0.905300	-0.790497
O4	O	0.810400	0.051400	0.865500	-0.608371
O5	O	0.053000	0.281700	0.556200	-0.691936
O6	O	0.130600	0.392600	0.597000	-0.664412
O7	O	0.827400	0.319400	0.914200	-0.691936
O8	O	0.906600	0.434800	0.888500	-0.664412
O9	O	0.082300	0.253300	0.364300	-0.691936
O10	O	0.075200	0.374600	0.403700	-0.664412
O11	O	0.788400	0.287900	0.085900	-0.633612
O12	O	0.817900	0.408700	0.053700	-0.786489
O13	O	0.210800	0.830500	0.485300	-0.692077
O14	O	0.865600	0.022500	0.054500	-0.664412
O15	O	0.937600	0.905600	0.081500	-0.691936
O16	O	0.142300	0.064000	0.405300	-0.790497
O17	O	0.189600	0.948600	0.365500	-0.608371
O18	O	0.947000	0.718300	0.056200	-0.691936
O19	O	0.869400	0.607400	0.097000	-0.664412
O20	O	0.172600	0.680600	0.414200	-0.691936
O21	O	0.093400	0.565200	0.388500	-0.664412
O22	O	0.917700	0.746700	0.864300	-0.691936
O23	O	0.924800	0.625400	0.903700	-0.664412
O24	O	0.211600	0.712100	0.585900	-0.633612
O25	O	0.182100	0.591300	0.553700	-0.786489
O26	O	0.789200	0.169500	0.985300	-0.692077
O27	O	0.365600	0.477500	0.554500	-0.664412
O28	O	0.437600	0.594400	0.581500	-0.691936
O29	O	0.642300	0.436000	0.905300	-0.790497
O30	O	0.689600	0.551400	0.865500	-0.608371
O31	O	0.447000	0.781700	0.556200	-0.691936
O32	O	0.369400	0.892600	0.597000	-0.664412
O33	O	0.672600	0.819400	0.914200	-0.691936
O34	O	0.593400	0.934800	0.888500	-0.664412
O35	O	0.417700	0.753300	0.364300	-0.691936
O36	O	0.424800	0.874600	0.403700	-0.664412
O37	O	0.711600	0.787900	0.085900	-0.633612
O38	O	0.682100	0.908700	0.053700	-0.786489
O39	O	0.289200	0.330500	0.485300	-0.692077
O40	O	0.634400	0.522500	0.054500	-0.664412
O41	O	0.562400	0.405600	0.081500	-0.691936
O42	O	0.357700	0.564000	0.405300	-0.790497
O43	O	0.310400	0.448600	0.365500	-0.608371
O44	O	0.553000	0.218300	0.056200	-0.691936
O45	O	0.630600	0.107400	0.097000	-0.664412
O46	O	0.327400	0.180600	0.414200	-0.691936
O47	O	0.406600	0.065200	0.388500	-0.664412
O48	O	0.582300	0.246700	0.864300	-0.691936
O49	O	0.575200	0.125400	0.903700	-0.664412
O50	O	0.288400	0.212100	0.585900	-0.633612
O51	O	0.317900	0.091300	0.553700	-0.786489
O52	O	0.710800	0.669500	0.985300	-0.692077
