data_FUYYAA_clean_PM
_symmetry_space_group_name_H-M	'P1'
_cell_length_a	8.823000
_cell_length_b	9.396000
_cell_length_c	14.546000
_cell_angle_alpha	81.850001
_cell_angle_beta	72.798002
_cell_angle_gamma	65.368001
_symmetry_Int_Tables_number 1

loop_
_symmetry_equiv_pos_as_xyz
'x,y,z'

loop_
_atom_site_label
_atom_site_type_symbol
_atom_site_fract_x
_atom_site_fract_y
_atom_site_fract_z
_atom_site_charge
Nd1	Nd	0.076470	0.187950	0.634370	2.248764
Nd2	Nd	0.923530	0.812050	0.365630	2.248764
Cu1	Cu	0.427030	0.382740	0.934460	0.833450
Cu2	Cu	0.572970	0.617260	0.065540	0.833450
H1	H	0.723800	0.297100	0.147400	0.087381
H2	H	0.978800	0.077700	0.111300	0.133691
H3	H	0.511800	0.896900	0.928200	0.087381
H4	H	0.041900	0.539100	0.774200	0.124980
H5	H	0.657700	0.964500	0.782200	0.132622
H6	H	0.921000	0.782600	0.702500	0.100378
H7	H	0.184400	0.077500	0.969900	0.102197
H8	H	0.276200	0.702900	0.852600	0.087381
H9	H	0.021200	0.922300	0.888700	0.133691
H10	H	0.488200	0.103100	0.071800	0.087381
H11	H	0.958100	0.460900	0.225800	0.124980
H12	H	0.342300	0.035500	0.217800	0.132622
H13	H	0.079000	0.217400	0.297500	0.100378
H14	H	0.815600	0.922500	0.030100	0.102197
C1	C	0.959800	0.468500	0.471700	0.552673
C2	C	0.898200	0.424700	0.949000	0.181581
C3	C	0.840600	0.576700	0.893400	0.197602
C4	C	0.691600	0.383700	0.783900	0.516570
C5	C	0.754000	0.220400	0.833300	0.516570
C6	C	0.807900	0.296200	0.090800	0.176245
C7	C	0.959600	0.164300	0.069600	-0.168508
C8	C	0.619400	0.824800	0.896600	0.178263
C9	C	0.933900	0.611800	0.804700	-0.165520
C10	C	0.705000	0.865500	0.809400	-0.159938
C11	C	0.862000	0.757900	0.762700	0.011008
C12	C	0.053400	0.294000	0.922800	-0.193526
C13	C	0.198700	0.276300	0.831100	0.742862
C14	C	0.081200	0.165200	0.985500	0.033829
C15	C	0.908000	0.021200	0.533300	0.552673
C16	C	0.040200	0.531500	0.528300	0.552673
C17	C	0.101800	0.575300	0.051000	0.181581
C18	C	0.159400	0.423300	0.106600	0.197602
C19	C	0.308400	0.616300	0.216100	0.516570
C20	C	0.246000	0.779600	0.166700	0.516570
C21	C	0.192100	0.703800	0.909200	0.176245
C22	C	0.040400	0.835700	0.930400	-0.168508
C23	C	0.380600	0.175200	0.103400	0.178263
C24	C	0.066100	0.388200	0.195300	-0.165520
C25	C	0.295000	0.134500	0.190600	-0.159938
C26	C	0.138000	0.242100	0.237300	0.011008
C27	C	0.946600	0.706000	0.077200	-0.193526
C28	C	0.801300	0.723700	0.168900	0.742862
C29	C	0.918800	0.834800	0.014500	0.033829
C30	C	0.092000	0.978800	0.466700	0.552673
N1	N	0.778700	0.422100	0.032200	-0.311266
N2	N	0.686300	0.683700	0.937800	-0.317117
N3	N	0.221300	0.577900	0.967800	-0.311266
N4	N	0.313700	0.316300	0.062200	-0.317117
O1	O	0.961200	0.334000	0.495800	-0.649924
O2	O	0.649800	0.201500	0.911200	-0.500392
O3	O	0.543600	0.481500	0.825800	-0.500392
O4	O	0.788100	0.407100	0.707300	-0.646637
O5	O	0.178700	0.241000	0.757600	-0.741578
O6	O	0.898800	0.123800	0.795000	-0.646637
O7	O	0.329600	0.290200	0.836600	-0.559515
O8	O	0.898700	0.556300	0.407100	-0.649924
O9	O	0.873200	0.088400	0.610500	-0.649924
O10	O	0.806400	0.986600	0.505300	-0.649924
O11	O	0.038800	0.666000	0.504200	-0.649924
O12	O	0.350200	0.798500	0.088800	-0.500392
O13	O	0.456400	0.518500	0.174200	-0.500392
O14	O	0.211900	0.592900	0.292700	-0.646637
O15	O	0.821300	0.759000	0.242400	-0.741578
O16	O	0.101200	0.876200	0.205000	-0.646637
O17	O	0.670400	0.709800	0.163400	-0.559515
O18	O	0.101300	0.443700	0.592900	-0.649924
O19	O	0.126800	0.911600	0.389500	-0.649924
O20	O	0.193600	0.013400	0.494700	-0.649924
