data_GADMAA_clean_PM
_symmetry_space_group_name_H-M	'P1'
_cell_length_a	14.510400
_cell_length_b	14.510400
_cell_length_c	15.772500
_cell_angle_alpha	90.000000
_cell_angle_beta	90.000000
_cell_angle_gamma	120.000000
_symmetry_Int_Tables_number 1

loop_
_symmetry_equiv_pos_as_xyz
'x,y,z'

loop_
_atom_site_label
_atom_site_type_symbol
_atom_site_fract_x
_atom_site_fract_y
_atom_site_fract_z
_atom_site_charge
Gd1	Gd	0.333330	0.666660	0.750000	2.118087
Gd2	Gd	0.666670	0.333340	0.750000	2.118087
Gd3	Gd	0.666670	0.333340	0.250000	2.118087
Gd4	Gd	0.333330	0.666660	0.250000	2.118087
Zn1	Zn	0.000000	0.500000	0.500000	1.062302
Zn2	Zn	0.500000	0.000000	0.500000	1.062302
Zn3	Zn	0.500000	0.500000	0.500000	1.062302
Zn4	Zn	0.500000	0.500000	0.000000	1.062302
Zn5	Zn	0.500000	0.000000	0.000000	1.062302
Zn6	Zn	0.000000	0.500000	0.000000	1.062302
H1	H	0.167600	0.802600	0.660200	0.100402
H2	H	0.087200	0.723000	0.727400	0.100402
H3	H	0.635000	0.832400	0.660200	0.100402
H4	H	0.635800	0.912800	0.727400	0.100402
H5	H	0.197400	0.365000	0.660200	0.100402
H6	H	0.277000	0.364200	0.727400	0.100402
H7	H	0.832400	0.197400	0.660200	0.100402
H8	H	0.912800	0.277000	0.727400	0.100402
H9	H	0.365000	0.167600	0.660200	0.100402
H10	H	0.364200	0.087200	0.727400	0.100402
H11	H	0.802600	0.635000	0.660200	0.100402
H12	H	0.723000	0.635800	0.727400	0.100402
H13	H	0.365000	0.197400	0.839800	0.100402
H14	H	0.364200	0.277000	0.772600	0.100402
H15	H	0.802600	0.167600	0.839800	0.100402
H16	H	0.723000	0.087200	0.772600	0.100402
H17	H	0.832400	0.635000	0.839800	0.100402
H18	H	0.912800	0.635800	0.772600	0.100402
H19	H	0.635000	0.802600	0.839800	0.100402
H20	H	0.635800	0.723000	0.772600	0.100402
H21	H	0.197400	0.832400	0.839800	0.100402
H22	H	0.277000	0.912800	0.772600	0.100402
H23	H	0.167600	0.365000	0.839800	0.100402
H24	H	0.087200	0.364200	0.772600	0.100402
H25	H	0.832400	0.197400	0.339800	0.100402
H26	H	0.912800	0.277000	0.272600	0.100402
H27	H	0.365000	0.167600	0.339800	0.100402
H28	H	0.364200	0.087200	0.272600	0.100402
H29	H	0.802600	0.635000	0.339800	0.100402
H30	H	0.723000	0.635800	0.272600	0.100402
H31	H	0.167600	0.802600	0.339800	0.100402
H32	H	0.087200	0.723000	0.272600	0.100402
H33	H	0.635000	0.832400	0.339800	0.100402
H34	H	0.635800	0.912800	0.272600	0.100402
H35	H	0.197400	0.365000	0.339800	0.100402
H36	H	0.277000	0.364200	0.272600	0.100402
H37	H	0.635000	0.802600	0.160200	0.100402
H38	H	0.635800	0.723000	0.227400	0.100402
H39	H	0.197400	0.832400	0.160200	0.100402
H40	H	0.277000	0.912800	0.227400	0.100402
H41	H	0.167600	0.365000	0.160200	0.100402
H42	H	0.087200	0.364200	0.227400	0.100402
H43	H	0.365000	0.197400	0.160200	0.100402
H44	H	0.364200	0.277000	0.227400	0.100402
H45	H	0.802600	0.167600	0.160200	0.100402
H46	H	0.723000	0.087200	0.227400	0.100402
H47	H	0.832400	0.635000	0.160200	0.100402
H48	H	0.912800	0.635800	0.227400	0.100402
C1	C	0.131900	0.650000	0.640000	0.726282
C2	C	0.150900	0.741100	0.695100	-0.056899
C3	C	0.518100	0.868100	0.640000	0.726282
C4	C	0.590200	0.849100	0.695100	-0.056899
C5	C	0.350000	0.481900	0.640000	0.726282
C6	C	0.258900	0.409800	0.695100	-0.056899
C7	C	0.868100	0.350000	0.640000	0.726282
C8	C	0.849100	0.258900	0.695100	-0.056899
C9	C	0.481900	0.131900	0.640000	0.726282
C10	C	0.409800	0.150900	0.695100	-0.056899
C11	C	0.650000	0.518100	0.640000	0.726282
C12	C	0.741100	0.590200	0.695100	-0.056899
C13	C	0.481900	0.350000	0.860000	0.726282
C14	C	0.409800	0.258900	0.804900	-0.056899
C15	C	0.650000	0.131900	0.860000	0.726282
C16	C	0.741100	0.150900	0.804900	-0.056899
C17	C	0.868100	0.518100	0.860000	0.726282
C18	C	0.849100	0.590200	0.804900	-0.056899
C19	C	0.518100	0.650000	0.860000	0.726282
C20	C	0.590200	0.741100	0.804900	-0.056899
C21	C	0.350000	0.868100	0.860000	0.726282
C22	C	0.258900	0.849100	0.804900	-0.056899
C23	C	0.131900	0.481900	0.860000	0.726282
C24	C	0.150900	0.409800	0.804900	-0.056899
C25	C	0.868100	0.350000	0.360000	0.726282
C26	C	0.849100	0.258900	0.304900	-0.056899
C27	C	0.481900	0.131900	0.360000	0.726282
C28	C	0.409800	0.150900	0.304900	-0.056899
C29	C	0.650000	0.518100	0.360000	0.726282
C30	C	0.741100	0.590200	0.304900	-0.056899
C31	C	0.131900	0.650000	0.360000	0.726282
C32	C	0.150900	0.741100	0.304900	-0.056899
C33	C	0.518100	0.868100	0.360000	0.726282
C34	C	0.590200	0.849100	0.304900	-0.056899
C35	C	0.350000	0.481900	0.360000	0.726282
C36	C	0.258900	0.409800	0.304900	-0.056899
C37	C	0.518100	0.650000	0.140000	0.726282
C38	C	0.590200	0.741100	0.195100	-0.056899
C39	C	0.350000	0.868100	0.140000	0.726282
C40	C	0.258900	0.849100	0.195100	-0.056899
C41	C	0.131900	0.481900	0.140000	0.726282
C42	C	0.150900	0.409800	0.195100	-0.056899
C43	C	0.481900	0.350000	0.140000	0.726282
C44	C	0.409800	0.258900	0.195100	-0.056899
C45	C	0.650000	0.131900	0.140000	0.726282
C46	C	0.741100	0.150900	0.195100	-0.056899
C47	C	0.868100	0.518100	0.140000	0.726282
C48	C	0.849100	0.590200	0.195100	-0.056899
O1	O	0.195690	0.615230	0.645590	-0.690007
O2	O	0.055000	0.617310	0.590430	-0.634435
O3	O	0.419540	0.804310	0.645590	-0.690007
O4	O	0.562310	0.945000	0.590430	-0.634435
O5	O	0.384770	0.580460	0.645590	-0.690007
O6	O	0.382690	0.437690	0.590430	-0.634435
O7	O	0.804310	0.384770	0.645590	-0.690007
O8	O	0.945000	0.382690	0.590430	-0.634435
O9	O	0.580460	0.195690	0.645590	-0.690007
O10	O	0.437690	0.055000	0.590430	-0.634435
O11	O	0.615230	0.419540	0.645590	-0.690007
O12	O	0.617310	0.562310	0.590430	-0.634435
O13	O	0.580460	0.384770	0.854410	-0.690007
O14	O	0.437690	0.382690	0.909570	-0.634435
O15	O	0.615230	0.195690	0.854410	-0.690007
O16	O	0.617310	0.055000	0.909570	-0.634435
O17	O	0.804310	0.419540	0.854410	-0.690007
O18	O	0.945000	0.562310	0.909570	-0.634435
O19	O	0.419540	0.615230	0.854410	-0.690007
O20	O	0.562310	0.617310	0.909570	-0.634435
O21	O	0.384770	0.804310	0.854410	-0.690007
O22	O	0.382690	0.945000	0.909570	-0.634435
O23	O	0.195690	0.580460	0.854410	-0.690007
O24	O	0.055000	0.437690	0.909570	-0.634435
O25	O	0.804310	0.384770	0.354410	-0.690007
O26	O	0.945000	0.382690	0.409570	-0.634435
O27	O	0.580460	0.195690	0.354410	-0.690007
O28	O	0.437690	0.055000	0.409570	-0.634435
O29	O	0.615230	0.419540	0.354410	-0.690007
O30	O	0.617310	0.562310	0.409570	-0.634435
O31	O	0.195690	0.615230	0.354410	-0.690007
O32	O	0.055000	0.617310	0.409570	-0.634435
O33	O	0.419540	0.804310	0.354410	-0.690007
O34	O	0.562310	0.945000	0.409570	-0.634435
O35	O	0.384770	0.580460	0.354410	-0.690007
O36	O	0.382690	0.437690	0.409570	-0.634435
O37	O	0.419540	0.615230	0.145590	-0.690007
O38	O	0.562310	0.617310	0.090430	-0.634435
O39	O	0.384770	0.804310	0.145590	-0.690007
O40	O	0.382690	0.945000	0.090430	-0.634435
O41	O	0.195690	0.580460	0.145590	-0.690007
O42	O	0.055000	0.437690	0.090430	-0.634435
O43	O	0.580460	0.384770	0.145590	-0.690007
O44	O	0.437690	0.382690	0.090430	-0.634435
O45	O	0.615230	0.195690	0.145590	-0.690007
O46	O	0.617310	0.055000	0.090430	-0.634435
O47	O	0.804310	0.419540	0.145590	-0.690007
O48	O	0.945000	0.562310	0.090430	-0.634435
O49	O	0.234850	0.765150	0.750000	-0.328670
O50	O	0.530300	0.765150	0.750000	-0.328670
O51	O	0.234850	0.469700	0.750000	-0.328670
O52	O	0.765150	0.234850	0.750000	-0.328670
O53	O	0.469700	0.234850	0.750000	-0.328670
O54	O	0.765150	0.530300	0.750000	-0.328670
O55	O	0.765150	0.234850	0.250000	-0.328670
O56	O	0.469700	0.234850	0.250000	-0.328670
O57	O	0.765150	0.530300	0.250000	-0.328670
O58	O	0.234850	0.765150	0.250000	-0.328670
O59	O	0.530300	0.765150	0.250000	-0.328670
O60	O	0.234850	0.469700	0.250000	-0.328670
