data_GAJVAQ_clean_PM
_symmetry_space_group_name_H-M	'P1'
_cell_length_a	12.804200
_cell_length_b	12.804200
_cell_length_c	34.635000
_cell_angle_alpha	82.425399
_cell_angle_beta	82.425398
_cell_angle_gamma	63.918398
_symmetry_Int_Tables_number 1

loop_
_symmetry_equiv_pos_as_xyz
'x,y,z'

loop_
_atom_site_label
_atom_site_type_symbol
_atom_site_fract_x
_atom_site_fract_y
_atom_site_fract_z
_atom_site_charge
Er1	Er	0.862450	0.703190	0.059030	1.530217
Er2	Er	0.848440	0.632220	0.183840	1.568710
Er3	Er	0.703190	0.862450	0.559030	1.530217
Er4	Er	0.632220	0.848440	0.683840	1.568710
Er5	Er	0.296810	0.137550	0.440970	1.530217
Er6	Er	0.367780	0.151560	0.316160	1.568710
Er7	Er	0.137550	0.296810	0.940970	1.530217
Er8	Er	0.151560	0.367780	0.816160	1.568710
H1	H	0.612900	0.087300	0.083700	0.074037
H2	H	0.452800	0.116000	0.209300	0.130698
H3	H	0.600000	0.942600	0.191000	0.105564
H4	H	0.405100	0.560500	0.067100	0.130698
H5	H	0.545700	0.630900	0.063700	0.105564
H6	H	0.601600	0.501800	0.173900	0.074037
H7	H	0.115300	0.827300	0.069700	0.105564
H8	H	0.253100	0.893500	0.069200	0.130698
H9	H	0.166400	0.700000	0.179500	0.074037
H10	H	0.253400	0.083200	0.152400	0.130698
H11	H	0.101900	0.262900	0.164700	0.105564
H12	H	0.131900	0.363100	0.051700	0.074037
H13	H	0.826900	0.050300	0.787500	0.105564
H14	H	0.005700	0.978900	0.812900	0.130698
H15	H	0.929100	0.744300	0.742800	0.074037
H16	H	0.110600	0.986800	0.905300	0.130698
H17	H	0.021300	0.954900	0.964400	0.105426
H18	H	0.114000	0.628600	0.938500	0.074194
H19	H	0.087300	0.612900	0.583700	0.074037
H20	H	0.116000	0.452800	0.709300	0.130698
H21	H	0.942600	0.600000	0.691000	0.105564
H22	H	0.560500	0.405100	0.567100	0.130698
H23	H	0.630900	0.545700	0.563700	0.105564
H24	H	0.501800	0.601600	0.673900	0.074037
H25	H	0.827300	0.115300	0.569700	0.105564
H26	H	0.893500	0.253100	0.569200	0.130698
H27	H	0.700000	0.166400	0.679500	0.074037
H28	H	0.083200	0.253400	0.652400	0.130698
H29	H	0.262900	0.101900	0.664700	0.105564
H30	H	0.363100	0.131900	0.551700	0.074037
H31	H	0.050300	0.826900	0.287500	0.105564
H32	H	0.978900	0.005700	0.312900	0.130698
H33	H	0.744300	0.929100	0.242800	0.074037
H34	H	0.986800	0.110600	0.405300	0.130698
H35	H	0.954900	0.021300	0.464400	0.105426
H36	H	0.628600	0.114000	0.438500	0.074194
H37	H	0.912700	0.387100	0.416300	0.074037
H38	H	0.884000	0.547200	0.290700	0.130698
H39	H	0.057400	0.400000	0.309000	0.105564
H40	H	0.439500	0.594900	0.432900	0.130698
H41	H	0.369100	0.454300	0.436300	0.105564
H42	H	0.498200	0.398400	0.326100	0.074037
H43	H	0.172700	0.884700	0.430300	0.105564
H44	H	0.106500	0.746900	0.430800	0.130698
H45	H	0.300000	0.833600	0.320500	0.074037
H46	H	0.916800	0.746600	0.347600	0.130698
H47	H	0.737100	0.898100	0.335300	0.105564
H48	H	0.636900	0.868100	0.448300	0.074037
H49	H	0.949700	0.173100	0.712500	0.105564
H50	H	0.021100	0.994300	0.687100	0.130698
H51	H	0.255700	0.070900	0.757200	0.074037
H52	H	0.013200	0.889400	0.594700	0.130698
H53	H	0.045100	0.978700	0.535600	0.105426
H54	H	0.371400	0.886000	0.561500	0.074194
H55	H	0.387100	0.912700	0.916300	0.074037
H56	H	0.547200	0.884000	0.790700	0.130698
H57	H	0.400000	0.057400	0.809000	0.105564
H58	H	0.594900	0.439500	0.932900	0.130698
H59	H	0.454300	0.369100	0.936300	0.105564
H60	H	0.398400	0.498200	0.826100	0.074037
H61	H	0.884700	0.172700	0.930300	0.105564
H62	H	0.746900	0.106500	0.930800	0.130698
H63	H	0.833600	0.300000	0.820500	0.074037
H64	H	0.746600	0.916800	0.847600	0.130698
H65	H	0.898100	0.737100	0.835300	0.105564
H66	H	0.868100	0.636900	0.948300	0.074037
H67	H	0.173100	0.949700	0.212500	0.105564
H68	H	0.994300	0.021100	0.187100	0.130698
H69	H	0.070900	0.255700	0.257200	0.074037
H70	H	0.889400	0.013200	0.094700	0.130698
H71	H	0.978700	0.045100	0.035600	0.105426
H72	H	0.886000	0.371400	0.061500	0.074194
C1	C	0.717800	0.883800	0.121700	0.730743
C2	C	0.622500	0.996300	0.134540	-0.216104
C3	C	0.580300	0.093100	0.109410	0.213346
C4	C	0.451400	0.201000	0.156000	0.270200
C5	C	0.486800	0.108800	0.183800	-0.184622
C6	C	0.573300	0.006700	0.172700	0.034394
C7	C	0.424600	0.495800	0.122600	0.270200
C8	C	0.445800	0.550600	0.088600	-0.184622
C9	C	0.530000	0.591800	0.086700	0.034394
C10	C	0.590600	0.574800	0.118700	-0.216104
C11	C	0.561000	0.515600	0.152000	0.213346
C12	C	0.683300	0.615300	0.119900	0.730743
C13	C	0.030600	0.714800	0.125000	0.730743
C14	C	0.124800	0.757400	0.124500	-0.216104
C15	C	0.153700	0.814500	0.092100	0.034394
C16	C	0.235700	0.852900	0.091500	-0.184622
C17	C	0.292500	0.831500	0.123900	0.270200
C18	C	0.184900	0.738700	0.157000	0.213346
C19	C	0.274200	0.122400	0.094200	0.270200
C20	C	0.226000	0.141600	0.132200	-0.184622
C21	C	0.136900	0.248100	0.139500	0.034394
C22	C	0.099500	0.334100	0.108780	-0.216104
C23	C	0.155300	0.306100	0.072400	0.213346
C24	C	0.004900	0.451100	0.116500	0.730743
C25	C	0.741100	0.943100	0.746900	0.682728
C26	C	0.856800	0.904000	0.762170	-0.200162
C27	C	0.882400	0.974800	0.783500	0.033939
C28	C	0.989100	0.932900	0.798400	-0.184622
C29	C	0.071500	0.820700	0.791300	0.270200
C30	C	0.943900	0.792700	0.756800	0.212725
C31	C	0.157700	0.830700	0.887900	0.270200
C32	C	0.108800	0.915000	0.912400	-0.183955
C33	C	0.056700	0.895900	0.947500	0.037425
C34	C	0.056700	0.786900	0.958000	-0.201947
C35	C	0.111700	0.702300	0.931900	0.225630
C36	C	0.994900	0.760100	0.995300	0.636638
C37	C	0.883800	0.717800	0.621700	0.730743
C38	C	0.996300	0.622500	0.634540	-0.216104
C39	C	0.093100	0.580300	0.609410	0.213346
C40	C	0.201000	0.451400	0.656000	0.270200
C41	C	0.108800	0.486800	0.683800	-0.184622
C42	C	0.006700	0.573300	0.672700	0.034394
C43	C	0.495800	0.424600	0.622600	0.270200
C44	C	0.550600	0.445800	0.588600	-0.184622
C45	C	0.591800	0.530000	0.586700	0.034394
C46	C	0.574800	0.590600	0.618700	-0.216104
C47	C	0.515600	0.561000	0.652000	0.213346
C48	C	0.615300	0.683300	0.619900	0.730743
C49	C	0.714800	0.030600	0.625000	0.730743
C50	C	0.757400	0.124800	0.624500	-0.216104
C51	C	0.814500	0.153700	0.592100	0.034394
C52	C	0.852900	0.235700	0.591500	-0.184622
C53	C	0.831500	0.292500	0.623900	0.270200
C54	C	0.738700	0.184900	0.657000	0.213346
C55	C	0.122400	0.274200	0.594200	0.270200
C56	C	0.141600	0.226000	0.632200	-0.184622
C57	C	0.248100	0.136900	0.639500	0.034394
C58	C	0.334100	0.099500	0.608780	-0.216104
C59	C	0.306100	0.155300	0.572400	0.213346
C60	C	0.451100	0.004900	0.616500	0.730743
C61	C	0.943100	0.741100	0.246900	0.682728
C62	C	0.904000	0.856800	0.262170	-0.200162
C63	C	0.974800	0.882400	0.283500	0.033939
C64	C	0.932900	0.989100	0.298400	-0.184622
C65	C	0.820700	0.071500	0.291300	0.270200
C66	C	0.792700	0.943900	0.256800	0.212725
C67	C	0.830700	0.157700	0.387900	0.270200
C68	C	0.915000	0.108800	0.412400	-0.183955
C69	C	0.895900	0.056700	0.447500	0.037425
C70	C	0.786900	0.056700	0.458000	-0.201947
C71	C	0.702300	0.111700	0.431900	0.225630
C72	C	0.760100	0.994900	0.495300	0.636638
C73	C	0.116200	0.282200	0.378300	0.730743
C74	C	0.003700	0.377500	0.365460	-0.216104
C75	C	0.906900	0.419700	0.390590	0.213346
C76	C	0.799000	0.548600	0.344000	0.270200
C77	C	0.891200	0.513200	0.316200	-0.184622
C78	C	0.993300	0.426700	0.327300	0.034394
C79	C	0.504200	0.575400	0.377400	0.270200
C80	C	0.449400	0.554200	0.411400	-0.184622
C81	C	0.408200	0.470000	0.413300	0.034394
C82	C	0.425200	0.409400	0.381300	-0.216104
C83	C	0.484400	0.439000	0.348000	0.213346
C84	C	0.384700	0.316700	0.380100	0.730743
C85	C	0.285200	0.969400	0.375000	0.730743
C86	C	0.242600	0.875200	0.375500	-0.216104
C87	C	0.185500	0.846300	0.407900	0.034394
C88	C	0.147100	0.764300	0.408500	-0.184622
C89	C	0.168500	0.707500	0.376100	0.270200
C90	C	0.261300	0.815100	0.343000	0.213346
C91	C	0.877600	0.725800	0.405800	0.270200
C92	C	0.858400	0.774000	0.367800	-0.184622
C93	C	0.751900	0.863100	0.360500	0.034394
C94	C	0.665900	0.900500	0.391220	-0.216104
C95	C	0.693900	0.844700	0.427600	0.213346
C96	C	0.548900	0.995100	0.383500	0.730743
C97	C	0.056900	0.258900	0.753100	0.682728
C98	C	0.096000	0.143200	0.737830	-0.200162
C99	C	0.025200	0.117600	0.716500	0.033939
C100	C	0.067100	0.010900	0.701600	-0.184622
C101	C	0.179300	0.928500	0.708700	0.270200
C102	C	0.207300	0.056100	0.743200	0.212725
C103	C	0.169300	0.842300	0.612100	0.270200
C104	C	0.085000	0.891200	0.587600	-0.183955
C105	C	0.104100	0.943300	0.552500	0.037425
C106	C	0.213100	0.943300	0.542000	-0.201947
C107	C	0.297700	0.888300	0.568100	0.225630
C108	C	0.239900	0.005100	0.504700	0.636638
C109	C	0.282200	0.116200	0.878300	0.730743
C110	C	0.377500	0.003700	0.865460	-0.216104
C111	C	0.419700	0.906900	0.890590	0.213346
C112	C	0.548600	0.799000	0.844000	0.270200
C113	C	0.513200	0.891200	0.816200	-0.184622
C114	C	0.426700	0.993300	0.827300	0.034394
C115	C	0.575400	0.504200	0.877400	0.270200
C116	C	0.554200	0.449400	0.911400	-0.184622
C117	C	0.470000	0.408200	0.913300	0.034394
C118	C	0.409400	0.425200	0.881300	-0.216104
C119	C	0.439000	0.484400	0.848000	0.213346
C120	C	0.316700	0.384700	0.880100	0.730743
C121	C	0.969400	0.285200	0.875000	0.730743
C122	C	0.875200	0.242600	0.875500	-0.216104
C123	C	0.846300	0.185500	0.907900	0.034394
C124	C	0.764300	0.147100	0.908500	-0.184622
C125	C	0.707500	0.168500	0.876100	0.270200
C126	C	0.815100	0.261300	0.843000	0.213346
C127	C	0.725800	0.877600	0.905800	0.270200
C128	C	0.774000	0.858400	0.867800	-0.184622
C129	C	0.863100	0.751900	0.860500	0.034394
C130	C	0.900500	0.665900	0.891220	-0.216104
C131	C	0.844700	0.693900	0.927600	0.213346
C132	C	0.995100	0.548900	0.883500	0.730743
C133	C	0.258900	0.056900	0.253100	0.682728
C134	C	0.143200	0.096000	0.237830	-0.200162
C135	C	0.117600	0.025200	0.216500	0.033939
C136	C	0.010900	0.067100	0.201600	-0.184622
C137	C	0.928500	0.179300	0.208700	0.270200
C138	C	0.056100	0.207300	0.243200	0.212725
C139	C	0.842300	0.169300	0.112100	0.270200
C140	C	0.891200	0.085000	0.087600	-0.183955
C141	C	0.943300	0.104100	0.052500	0.037425
C142	C	0.943300	0.213100	0.042000	-0.201947
C143	C	0.888300	0.297700	0.068100	0.225630
C144	C	0.005100	0.239900	0.004700	0.636638
S1	S	0.337900	0.333260	0.172290	0.005016
S2	S	0.310410	0.448150	0.124700	0.005016
S3	S	0.406110	0.875610	0.126620	0.005016
S4	S	0.391810	0.990350	0.079540	0.005016
S5	S	0.222500	0.861760	0.841150	0.005016
S6	S	0.213430	0.750450	0.806970	0.005016
S7	S	0.333260	0.337900	0.672290	0.005016
S8	S	0.448150	0.310410	0.624700	0.005016
S9	S	0.875610	0.406110	0.626620	0.005016
S10	S	0.990350	0.391810	0.579540	0.005016
S11	S	0.861760	0.222500	0.341150	0.005016
S12	S	0.750450	0.213430	0.306970	0.005016
S13	S	0.666740	0.662100	0.327710	0.005016
S14	S	0.551850	0.689590	0.375300	0.005016
S15	S	0.124390	0.593890	0.373380	0.005016
S16	S	0.009650	0.608190	0.420460	0.005016
S17	S	0.138240	0.777500	0.658850	0.005016
S18	S	0.249550	0.786570	0.693030	0.005016
S19	S	0.662100	0.666740	0.827710	0.005016
S20	S	0.689590	0.551850	0.875300	0.005016
S21	S	0.593890	0.124390	0.873380	0.005016
S22	S	0.608190	0.009650	0.920460	0.005016
S23	S	0.777500	0.138240	0.158850	0.005016
S24	S	0.786570	0.249550	0.193030	0.005016
N1	N	0.494900	0.196500	0.118680	-0.406673
N2	N	0.479500	0.478100	0.154560	-0.406673
N3	N	0.240700	0.202300	0.065010	-0.406673
N4	N	0.269000	0.774600	0.157300	-0.406673
N5	N	0.049200	0.751400	0.771080	-0.406673
N6	N	0.163700	0.724900	0.896160	-0.406607
N7	N	0.196500	0.494900	0.618680	-0.406673
N8	N	0.478100	0.479500	0.654560	-0.406673
N9	N	0.202300	0.240700	0.565010	-0.406673
N10	N	0.774600	0.269000	0.657300	-0.406673
N11	N	0.751400	0.049200	0.271080	-0.406673
N12	N	0.724900	0.163700	0.396160	-0.406607
N13	N	0.803500	0.505100	0.381320	-0.406673
N14	N	0.521900	0.520500	0.345440	-0.406673
N15	N	0.797700	0.759300	0.434990	-0.406673
N16	N	0.225400	0.731000	0.342700	-0.406673
N17	N	0.248600	0.950800	0.728920	-0.406673
N18	N	0.275100	0.836300	0.603840	-0.406607
N19	N	0.505100	0.803500	0.881320	-0.406673
N20	N	0.520500	0.521900	0.845440	-0.406673
N21	N	0.759300	0.797700	0.934990	-0.406673
N22	N	0.731000	0.225400	0.842700	-0.406673
N23	N	0.950800	0.248600	0.228920	-0.406673
N24	N	0.836300	0.275100	0.103840	-0.406607
O1	O	0.764600	0.803800	0.147360	-0.661756
O2	O	0.744000	0.875200	0.085670	-0.633277
O3	O	0.720900	0.604100	0.151890	-0.661756
O4	O	0.714900	0.657300	0.088430	-0.633277
O5	O	0.001200	0.674400	0.156700	-0.661756
O6	O	0.989100	0.726900	0.093000	-0.633277
O7	O	0.967800	0.472800	0.150480	-0.661756
O8	O	0.969700	0.521500	0.086550	-0.633277
O9	O	0.667300	0.046500	0.749880	-0.557689
O10	O	0.724800	0.867600	0.732470	-0.660519
O11	O	0.924600	0.842200	0.014880	-0.571574
O12	O	0.012100	0.657700	0.006530	-0.571574
O13	O	0.803800	0.764600	0.647360	-0.661756
O14	O	0.875200	0.744000	0.585670	-0.633277
O15	O	0.604100	0.720900	0.651890	-0.661756
O16	O	0.657300	0.714900	0.588430	-0.633277
O17	O	0.674400	0.001200	0.656700	-0.661756
O18	O	0.726900	0.989100	0.593000	-0.633277
O19	O	0.472800	0.967800	0.650480	-0.661756
O20	O	0.521500	0.969700	0.586550	-0.633277
O21	O	0.046500	0.667300	0.249880	-0.557689
O22	O	0.867600	0.724800	0.232470	-0.660519
O23	O	0.842200	0.924600	0.514880	-0.571574
O24	O	0.657700	0.012100	0.506530	-0.571574
O25	O	0.196200	0.235400	0.352640	-0.661756
O26	O	0.124800	0.256000	0.414330	-0.633277
O27	O	0.395900	0.279100	0.348110	-0.661756
O28	O	0.342700	0.285100	0.411570	-0.633277
O29	O	0.325600	0.998800	0.343300	-0.661756
O30	O	0.273100	0.010900	0.407000	-0.633277
O31	O	0.527200	0.032200	0.349520	-0.661756
O32	O	0.478500	0.030300	0.413450	-0.633277
O33	O	0.953500	0.332700	0.750120	-0.557689
O34	O	0.132400	0.275200	0.767530	-0.660519
O35	O	0.157800	0.075400	0.485120	-0.571574
O36	O	0.342300	0.987900	0.493470	-0.571574
O37	O	0.235400	0.196200	0.852640	-0.661756
O38	O	0.256000	0.124800	0.914330	-0.633277
O39	O	0.279100	0.395900	0.848110	-0.661756
O40	O	0.285100	0.342700	0.911570	-0.633277
O41	O	0.998800	0.325600	0.843300	-0.661756
O42	O	0.010900	0.273100	0.907000	-0.633277
O43	O	0.032200	0.527200	0.849520	-0.661756
O44	O	0.030300	0.478500	0.913450	-0.633277
O45	O	0.332700	0.953500	0.250120	-0.557689
O46	O	0.275200	0.132400	0.267530	-0.660519
O47	O	0.075400	0.157800	0.985120	-0.571574
O48	O	0.987900	0.342300	0.993470	-0.571574
