data_GAXVUY_clean_PM
_symmetry_space_group_name_H-M	'P1'
_cell_length_a	10.311000
_cell_length_b	14.366600
_cell_length_c	18.401400
_cell_angle_alpha	90.000000
_cell_angle_beta	90.000000
_cell_angle_gamma	99.825001
_symmetry_Int_Tables_number 1

loop_
_symmetry_equiv_pos_as_xyz
'x,y,z'

loop_
_atom_site_label
_atom_site_type_symbol
_atom_site_fract_x
_atom_site_fract_y
_atom_site_fract_z
_atom_site_charge
Ca1	Ca	0.623670	0.821100	0.308150	1.656593
Ca2	Ca	0.876330	0.678900	0.808150	1.656593
Ca3	Ca	0.376330	0.178900	0.691850	1.656593
Ca4	Ca	0.123670	0.321100	0.191850	1.656593
Zn1	Zn	0.707410	0.053020	0.186170	1.069764
Zn2	Zn	0.792590	0.446980	0.686170	1.069764
Zn3	Zn	0.292590	0.946980	0.813830	1.069764
Zn4	Zn	0.207410	0.553020	0.313830	1.069764
H1	H	0.603300	0.012900	0.474000	0.105857
H2	H	0.591700	0.101200	0.577500	0.105857
H3	H	0.755900	0.332800	0.470300	0.105857
H4	H	0.752400	0.246200	0.364700	0.105857
H5	H	0.054900	0.827600	0.280400	0.105857
H6	H	0.277400	0.828400	0.268000	0.105857
H7	H	0.297000	0.036500	0.121800	0.105857
H8	H	0.073200	0.031600	0.131300	0.105857
H9	H	0.896700	0.487100	0.974000	0.105857
H10	H	0.908300	0.398800	0.077500	0.105857
H11	H	0.744100	0.167200	0.970300	0.105857
H12	H	0.747600	0.253800	0.864700	0.105857
H13	H	0.445100	0.672400	0.780400	0.105857
H14	H	0.222600	0.671600	0.768000	0.105857
H15	H	0.203000	0.463500	0.621800	0.105857
H16	H	0.426800	0.468400	0.631300	0.105857
H17	H	0.396700	0.987100	0.526000	0.105857
H18	H	0.408300	0.898800	0.422500	0.105857
H19	H	0.244100	0.667200	0.529700	0.105857
H20	H	0.247600	0.753800	0.635300	0.105857
H21	H	0.945100	0.172400	0.719600	0.105857
H22	H	0.722600	0.171600	0.732000	0.105857
H23	H	0.703000	0.963500	0.878200	0.105857
H24	H	0.926800	0.968400	0.868700	0.105857
H25	H	0.103300	0.512900	0.026000	0.105857
H26	H	0.091700	0.601200	0.922500	0.105857
H27	H	0.255900	0.832800	0.029700	0.105857
H28	H	0.252400	0.746200	0.135300	0.105857
H29	H	0.554900	0.327600	0.219600	0.105857
H30	H	0.777400	0.328400	0.232000	0.105857
H31	H	0.797000	0.536500	0.378200	0.105857
H32	H	0.573200	0.531600	0.368700	0.105857
C1	C	0.675600	0.120700	0.408000	-0.137044
C2	C	0.630700	0.078000	0.472500	-0.058844
C3	C	0.625900	0.130700	0.535000	-0.058844
C4	C	0.671500	0.226600	0.534800	-0.137044
C5	C	0.721600	0.268600	0.470900	-0.058844
C6	C	0.721400	0.216400	0.407700	-0.058844
C7	C	0.670900	0.063000	0.340200	0.741850
C8	C	0.667700	0.283200	0.603200	0.741850
C9	C	0.041800	0.930100	0.207900	-0.137044
C10	C	0.103700	0.869500	0.248100	-0.058844
C11	C	0.237200	0.870300	0.241000	-0.058844
C12	C	0.311100	0.933000	0.194000	-0.137044
C13	C	0.248200	0.993800	0.153500	-0.058844
C14	C	0.114400	0.991700	0.159600	-0.058844
C15	C	0.895900	0.931000	0.216600	0.741850
C16	C	0.457200	0.937100	0.189200	0.741850
C17	C	0.824400	0.379300	0.908000	-0.137044
C18	C	0.869300	0.422000	0.972500	-0.058844
C19	C	0.874100	0.369300	0.035000	-0.058844
C20	C	0.828500	0.273400	0.034800	-0.137044
C21	C	0.778400	0.231400	0.970900	-0.058844
C22	C	0.778600	0.283600	0.907700	-0.058844
C23	C	0.829100	0.437000	0.840200	0.741850
C24	C	0.832300	0.216800	0.103200	0.741850
C25	C	0.458200	0.569900	0.707900	-0.137044
C26	C	0.396300	0.630500	0.748100	-0.058844
C27	C	0.262800	0.629700	0.741000	-0.058844
C28	C	0.188900	0.567000	0.694000	-0.137044
C29	C	0.251800	0.506200	0.653500	-0.058844
C30	C	0.385600	0.508300	0.659600	-0.058844
C31	C	0.604100	0.569000	0.716600	0.741850
C32	C	0.042800	0.562900	0.689200	0.741850
C33	C	0.324400	0.879300	0.592000	-0.137044
C34	C	0.369300	0.922000	0.527500	-0.058844
C35	C	0.374100	0.869300	0.465000	-0.058844
C36	C	0.328500	0.773400	0.465200	-0.137044
C37	C	0.278400	0.731400	0.529100	-0.058844
C38	C	0.278600	0.783600	0.592300	-0.058844
C39	C	0.329100	0.937000	0.659800	0.741850
C40	C	0.332300	0.716800	0.396800	0.741850
C41	C	0.958200	0.069900	0.792100	-0.137044
C42	C	0.896300	0.130500	0.751900	-0.058844
C43	C	0.762800	0.129700	0.759000	-0.058844
C44	C	0.688900	0.067000	0.806000	-0.137044
C45	C	0.751800	0.006200	0.846500	-0.058844
C46	C	0.885600	0.008300	0.840400	-0.058844
C47	C	0.104100	0.069000	0.783400	0.741850
C48	C	0.542800	0.062900	0.810800	0.741850
C49	C	0.175600	0.620700	0.092000	-0.137044
C50	C	0.130700	0.578000	0.027500	-0.058844
C51	C	0.125900	0.630700	0.965000	-0.058844
C52	C	0.171500	0.726600	0.965200	-0.137044
C53	C	0.221600	0.768600	0.029100	-0.058844
C54	C	0.221400	0.716400	0.092300	-0.058844
C55	C	0.170900	0.563000	0.159800	0.741850
C56	C	0.167700	0.783200	0.896800	0.741850
C57	C	0.541800	0.430100	0.292100	-0.137044
C58	C	0.603700	0.369500	0.251900	-0.058844
C59	C	0.737200	0.370300	0.259000	-0.058844
C60	C	0.811100	0.433000	0.306000	-0.137044
C61	C	0.748200	0.493800	0.346500	-0.058844
C62	C	0.614400	0.491700	0.340400	-0.058844
C63	C	0.395900	0.431000	0.283400	0.741850
C64	C	0.957200	0.437100	0.310800	0.741850
O1	O	0.709800	0.107600	0.282980	-0.614323
O2	O	0.627300	0.977200	0.343570	-0.766097
O3	O	0.758100	0.354300	0.608080	-0.614323
O4	O	0.581900	0.257100	0.649300	-0.766097
O5	O	0.846200	0.980700	0.171320	-0.614323
O6	O	0.836700	0.885200	0.267300	-0.766097
O7	O	0.522700	0.011500	0.161350	-0.614323
O8	O	0.506400	0.870400	0.213330	-0.766097
O9	O	0.790200	0.392400	0.782980	-0.614323
O10	O	0.872700	0.522800	0.843570	-0.766097
O11	O	0.741900	0.145700	0.108080	-0.614323
O12	O	0.918100	0.242900	0.149300	-0.766097
O13	O	0.653800	0.519300	0.671320	-0.614323
O14	O	0.663300	0.614800	0.767300	-0.766097
O15	O	0.977300	0.488500	0.661350	-0.614323
O16	O	0.993600	0.629600	0.713330	-0.766097
O17	O	0.290200	0.892400	0.717020	-0.614323
O18	O	0.372700	0.022800	0.656430	-0.766097
O19	O	0.241900	0.645700	0.391920	-0.614323
O20	O	0.418100	0.742900	0.350700	-0.766097
O21	O	0.153800	0.019300	0.828680	-0.614323
O22	O	0.163300	0.114800	0.732700	-0.766097
O23	O	0.477300	0.988500	0.838650	-0.614323
O24	O	0.493600	0.129600	0.786670	-0.766097
O25	O	0.209800	0.607600	0.217020	-0.614323
O26	O	0.127300	0.477200	0.156430	-0.766097
O27	O	0.258100	0.854300	0.891920	-0.614323
O28	O	0.081900	0.757100	0.850700	-0.766097
O29	O	0.346200	0.480700	0.328680	-0.614323
O30	O	0.336700	0.385200	0.232700	-0.766097
O31	O	0.022700	0.511500	0.338650	-0.614323
O32	O	0.006400	0.370400	0.286670	-0.766097
