data_GEDDEA_clean_PM
_symmetry_space_group_name_H-M	'P1'
_cell_length_a	18.246300
_cell_length_b	18.246300
_cell_length_c	18.246300
_cell_angle_alpha	95.008700
_cell_angle_beta	95.008700
_cell_angle_gamma	95.008700
_symmetry_Int_Tables_number 1

loop_
_symmetry_equiv_pos_as_xyz
'x,y,z'

loop_
_atom_site_label
_atom_site_type_symbol
_atom_site_fract_x
_atom_site_fract_y
_atom_site_fract_z
_atom_site_charge
Ni1	Ni	0.746400	0.416360	0.223080	1.176070
Ni2	Ni	0.580090	0.274400	0.795120	1.158835
Ni3	Ni	0.629780	0.537390	0.242430	1.148077
Ni4	Ni	0.825200	0.294180	0.295860	1.078778
Ni5	Ni	0.223080	0.746400	0.416360	1.176070
Ni6	Ni	0.795120	0.580090	0.274400	1.158835
Ni7	Ni	0.242430	0.629780	0.537390	1.148077
Ni8	Ni	0.295860	0.825200	0.294180	1.078778
Ni9	Ni	0.416360	0.223080	0.746400	1.176070
Ni10	Ni	0.274400	0.795120	0.580090	1.158835
Ni11	Ni	0.537390	0.242430	0.629780	1.148077
Ni12	Ni	0.294180	0.295860	0.825200	1.078778
Ni13	Ni	0.253600	0.583640	0.776920	1.176070
Ni14	Ni	0.419910	0.725600	0.204880	1.158835
Ni15	Ni	0.370220	0.462610	0.757570	1.148077
Ni16	Ni	0.174800	0.705820	0.704140	1.078778
Ni17	Ni	0.776920	0.253600	0.583640	1.176070
Ni18	Ni	0.204880	0.419910	0.725600	1.158835
Ni19	Ni	0.757570	0.370220	0.462610	1.148077
Ni20	Ni	0.704140	0.174800	0.705820	1.078778
Ni21	Ni	0.583640	0.776920	0.253600	1.176070
Ni22	Ni	0.725600	0.204880	0.419910	1.158835
Ni23	Ni	0.462610	0.757570	0.370220	1.148077
Ni24	Ni	0.705820	0.704140	0.174800	1.078778
H1	H	0.724600	0.296200	0.003900	0.107369
H2	H	0.803400	0.119300	0.895900	0.103719
H3	H	0.877700	0.099400	0.008000	0.105638
H4	H	0.885200	0.188800	0.108200	0.103719
H5	H	0.713600	0.486800	0.346900	0.450874
H6	H	0.572400	0.154800	0.720600	0.418691
H7	H	0.961400	0.471900	0.240900	0.165095
H8	H	0.003500	0.507800	0.177300	0.165095
H9	H	0.956800	0.557400	0.229000	0.165095
H10	H	0.838500	0.548900	0.042900	0.165095
H11	H	0.882600	0.604000	0.108400	0.165095
H12	H	0.926900	0.555000	0.053700	0.165095
H13	H	0.498000	0.395200	0.142000	0.165095
H14	H	0.520600	0.467500	0.102300	0.165095
H15	H	0.493400	0.391200	0.053700	0.165095
H16	H	0.680400	0.430800	0.012800	0.165095
H17	H	0.595300	0.416700	0.981200	0.165095
H18	H	0.624300	0.490200	0.033500	0.165095
H19	H	0.003900	0.724600	0.296200	0.107369
H20	H	0.895900	0.803400	0.119300	0.103719
H21	H	0.008000	0.877700	0.099400	0.105638
H22	H	0.108200	0.885200	0.188800	0.103719
H23	H	0.346900	0.713600	0.486800	0.450874
H24	H	0.720600	0.572400	0.154800	0.418691
H25	H	0.240900	0.961400	0.471900	0.165095
H26	H	0.177300	0.003500	0.507800	0.165095
H27	H	0.229000	0.956800	0.557400	0.165095
H28	H	0.042900	0.838500	0.548900	0.165095
H29	H	0.108400	0.882600	0.604000	0.165095
H30	H	0.053700	0.926900	0.555000	0.165095
H31	H	0.142000	0.498000	0.395200	0.165095
H32	H	0.102300	0.520600	0.467500	0.165095
H33	H	0.053700	0.493400	0.391200	0.165095
H34	H	0.012800	0.680400	0.430800	0.165095
H35	H	0.981200	0.595300	0.416700	0.165095
H36	H	0.033500	0.624300	0.490200	0.165095
H37	H	0.296200	0.003900	0.724600	0.107369
H38	H	0.119300	0.895900	0.803400	0.103719
H39	H	0.099400	0.008000	0.877700	0.105638
H40	H	0.188800	0.108200	0.885200	0.103719
H41	H	0.486800	0.346900	0.713600	0.450874
H42	H	0.154800	0.720600	0.572400	0.418691
H43	H	0.471900	0.240900	0.961400	0.165095
H44	H	0.507800	0.177300	0.003500	0.165095
H45	H	0.557400	0.229000	0.956800	0.165095
H46	H	0.548900	0.042900	0.838500	0.165095
H47	H	0.604000	0.108400	0.882600	0.165095
H48	H	0.555000	0.053700	0.926900	0.165095
H49	H	0.395200	0.142000	0.498000	0.165095
H50	H	0.467500	0.102300	0.520600	0.165095
H51	H	0.391200	0.053700	0.493400	0.165095
H52	H	0.430800	0.012800	0.680400	0.165095
H53	H	0.416700	0.981200	0.595300	0.165095
H54	H	0.490200	0.033500	0.624300	0.165095
H55	H	0.275400	0.703800	0.996100	0.107369
H56	H	0.196600	0.880700	0.104100	0.103719
H57	H	0.122300	0.900600	0.992000	0.105638
H58	H	0.114800	0.811200	0.891800	0.103719
H59	H	0.286400	0.513200	0.653100	0.450874
H60	H	0.427600	0.845200	0.279400	0.418691
H61	H	0.038600	0.528100	0.759100	0.165095
H62	H	0.996500	0.492200	0.822700	0.165095
H63	H	0.043200	0.442600	0.771000	0.165095
H64	H	0.161500	0.451100	0.957100	0.165095
H65	H	0.117400	0.396000	0.891600	0.165095
H66	H	0.073100	0.445000	0.946300	0.165095
H67	H	0.502000	0.604800	0.858000	0.165095
H68	H	0.479400	0.532500	0.897700	0.165095
H69	H	0.506600	0.608800	0.946300	0.165095
H70	H	0.319600	0.569200	0.987200	0.165095
H71	H	0.404700	0.583300	0.018800	0.165095
H72	H	0.375700	0.509800	0.966500	0.165095
H73	H	0.996100	0.275400	0.703800	0.107369
H74	H	0.104100	0.196600	0.880700	0.103719
H75	H	0.992000	0.122300	0.900600	0.105638
H76	H	0.891800	0.114800	0.811200	0.103719
H77	H	0.653100	0.286400	0.513200	0.450874
H78	H	0.279400	0.427600	0.845200	0.418691
H79	H	0.759100	0.038600	0.528100	0.165095
H80	H	0.822700	0.996500	0.492200	0.165095
H81	H	0.771000	0.043200	0.442600	0.165095
H82	H	0.957100	0.161500	0.451100	0.165095
H83	H	0.891600	0.117400	0.396000	0.165095
H84	H	0.946300	0.073100	0.445000	0.165095
H85	H	0.858000	0.502000	0.604800	0.165095
H86	H	0.897700	0.479400	0.532500	0.165095
H87	H	0.946300	0.506600	0.608800	0.165095
H88	H	0.987200	0.319600	0.569200	0.165095
H89	H	0.018800	0.404700	0.583300	0.165095
H90	H	0.966500	0.375700	0.509800	0.165095
H91	H	0.703800	0.996100	0.275400	0.107369
H92	H	0.880700	0.104100	0.196600	0.103719
H93	H	0.900600	0.992000	0.122300	0.105638
H94	H	0.811200	0.891800	0.114800	0.103719
H95	H	0.513200	0.653100	0.286400	0.450874
H96	H	0.845200	0.279400	0.427600	0.418691
H97	H	0.528100	0.759100	0.038600	0.165095
H98	H	0.492200	0.822700	0.996500	0.165095
H99	H	0.442600	0.771000	0.043200	0.165095
H100	H	0.451100	0.957100	0.161500	0.165095
H101	H	0.396000	0.891600	0.117400	0.165095
H102	H	0.445000	0.946300	0.073100	0.165095
H103	H	0.604800	0.858000	0.502000	0.165095
H104	H	0.532500	0.897700	0.479400	0.165095
H105	H	0.608800	0.946300	0.506600	0.165095
H106	H	0.569200	0.987200	0.319600	0.165095
H107	H	0.583300	0.018800	0.404700	0.165095
H108	H	0.509800	0.966500	0.375700	0.165095
C1	C	0.804900	0.301200	0.131900	0.690437
C2	C	0.709400	0.219000	0.874300	0.685703
C3	C	0.808500	0.251900	0.068700	-0.147308
C4	C	0.757000	0.258100	0.003300	0.001591
C5	C	0.755300	0.208300	0.940500	-0.147308
C6	C	0.802300	0.151200	0.939800	-0.025688
C7	C	0.849600	0.140800	0.006100	-0.127266
C8	C	0.851800	0.193300	0.066300	-0.025688
C9	C	0.959200	0.508000	0.204000	-0.403674
C10	C	0.881900	0.556100	0.079300	-0.403674
C11	C	0.521100	0.413700	0.099800	-0.403435
C12	C	0.629600	0.437500	0.023600	-0.403435
C13	C	0.131900	0.804900	0.301200	0.690437
C14	C	0.874300	0.709400	0.219000	0.685703
C15	C	0.068700	0.808500	0.251900	-0.147308
C16	C	0.003300	0.757000	0.258100	0.001591
C17	C	0.940500	0.755300	0.208300	-0.147308
C18	C	0.939800	0.802300	0.151200	-0.025688
C19	C	0.006100	0.849600	0.140800	-0.127266
C20	C	0.066300	0.851800	0.193300	-0.025688
C21	C	0.204000	0.959200	0.508000	-0.403674
C22	C	0.079300	0.881900	0.556100	-0.403674
C23	C	0.099800	0.521100	0.413700	-0.403435
C24	C	0.023600	0.629600	0.437500	-0.403435
C25	C	0.301200	0.131900	0.804900	0.690437
C26	C	0.219000	0.874300	0.709400	0.685703
C27	C	0.251900	0.068700	0.808500	-0.147308
C28	C	0.258100	0.003300	0.757000	0.001591
C29	C	0.208300	0.940500	0.755300	-0.147308
C30	C	0.151200	0.939800	0.802300	-0.025688
C31	C	0.140800	0.006100	0.849600	-0.127266
C32	C	0.193300	0.066300	0.851800	-0.025688
C33	C	0.508000	0.204000	0.959200	-0.403674
C34	C	0.556100	0.079300	0.881900	-0.403674
C35	C	0.413700	0.099800	0.521100	-0.403435
C36	C	0.437500	0.023600	0.629600	-0.403435
C37	C	0.195100	0.698800	0.868100	0.690437
C38	C	0.290600	0.781000	0.125700	0.685703
C39	C	0.191500	0.748100	0.931300	-0.147308
C40	C	0.243000	0.741900	0.996700	0.001591
C41	C	0.244700	0.791700	0.059500	-0.147308
C42	C	0.197700	0.848800	0.060200	-0.025688
C43	C	0.150400	0.859200	0.993900	-0.127266
C44	C	0.148200	0.806700	0.933700	-0.025688
C45	C	0.040800	0.492000	0.796000	-0.403674
C46	C	0.118100	0.443900	0.920700	-0.403674
C47	C	0.478900	0.586300	0.900200	-0.403435
C48	C	0.370400	0.562500	0.976400	-0.403435
C49	C	0.868100	0.195100	0.698800	0.690437
C50	C	0.125700	0.290600	0.781000	0.685703
C51	C	0.931300	0.191500	0.748100	-0.147308
C52	C	0.996700	0.243000	0.741900	0.001591
C53	C	0.059500	0.244700	0.791700	-0.147308
C54	C	0.060200	0.197700	0.848800	-0.025688
C55	C	0.993900	0.150400	0.859200	-0.127266
C56	C	0.933700	0.148200	0.806700	-0.025688
C57	C	0.796000	0.040800	0.492000	-0.403674
C58	C	0.920700	0.118100	0.443900	-0.403674
C59	C	0.900200	0.478900	0.586300	-0.403435
C60	C	0.976400	0.370400	0.562500	-0.403435
C61	C	0.698800	0.868100	0.195100	0.690437
C62	C	0.781000	0.125700	0.290600	0.685703
C63	C	0.748100	0.931300	0.191500	-0.147308
C64	C	0.741900	0.996700	0.243000	0.001591
C65	C	0.791700	0.059500	0.244700	-0.147308
C66	C	0.848800	0.060200	0.197700	-0.025688
C67	C	0.859200	0.993900	0.150400	-0.127266
C68	C	0.806700	0.933700	0.148200	-0.025688
C69	C	0.492000	0.796000	0.040800	-0.403674
C70	C	0.443900	0.920700	0.118100	-0.403674
C71	C	0.586300	0.900200	0.478900	-0.403435
C72	C	0.562500	0.976400	0.370400	-0.403435
S1	S	0.651770	0.315120	0.320430	1.704346
S2	S	0.868050	0.460960	0.365920	1.704346
S3	S	0.878040	0.483580	0.139540	0.639835
S4	S	0.609670	0.391590	0.102220	0.640171
S5	S	0.320430	0.651770	0.315120	1.704346
S6	S	0.365920	0.868050	0.460960	1.704346
S7	S	0.139540	0.878040	0.483580	0.639835
S8	S	0.102220	0.609670	0.391590	0.640171
S9	S	0.315120	0.320430	0.651770	1.704346
S10	S	0.460960	0.365920	0.868050	1.704346
S11	S	0.483580	0.139540	0.878040	0.639835
S12	S	0.391590	0.102220	0.609670	0.640171
S13	S	0.348230	0.684880	0.679570	1.704346
S14	S	0.131950	0.539040	0.634080	1.704346
S15	S	0.121960	0.516420	0.860460	0.639835
S16	S	0.390330	0.608410	0.897780	0.640171
S17	S	0.679570	0.348230	0.684880	1.704346
S18	S	0.634080	0.131950	0.539040	1.704346
S19	S	0.860460	0.121960	0.516420	0.639835
S20	S	0.897780	0.390330	0.608410	0.640171
S21	S	0.684880	0.679570	0.348230	1.704346
S22	S	0.539040	0.634080	0.131950	1.704346
S23	S	0.516420	0.860460	0.121960	0.639835
S24	S	0.608410	0.897780	0.390330	0.640171
O1	O	0.853600	0.292500	0.188800	-0.581301
O2	O	0.759800	0.349800	0.135900	-0.578795
O3	O	0.652100	0.251700	0.876700	-0.570724
O4	O	0.729800	0.189600	0.813700	-0.581301
O5	O	0.716930	0.497630	0.294430	-0.993678
O6	O	0.601000	0.202000	0.711700	-1.010855
O7	O	0.646900	0.240600	0.348100	-0.737609
O8	O	0.672000	0.375000	0.383600	-0.733098
O9	O	0.710500	0.319900	0.268800	-0.844213
O10	O	0.581200	0.328100	0.281300	-0.705476
O11	O	0.842200	0.407100	0.300700	-0.844213
O12	O	0.814800	0.457200	0.422000	-0.733098
O13	O	0.941500	0.441000	0.397300	-0.705476
O14	O	0.873200	0.535700	0.340600	-0.737609
O15	O	0.813670	0.500870	0.185570	-0.726271
O16	O	0.650500	0.445000	0.170100	-0.728144
O17	O	0.188800	0.853600	0.292500	-0.581301
O18	O	0.135900	0.759800	0.349800	-0.578795
O19	O	0.876700	0.652100	0.251700	-0.570724
O20	O	0.813700	0.729800	0.189600	-0.581301
O21	O	0.294430	0.716930	0.497630	-0.993678
O22	O	0.711700	0.601000	0.202000	-1.010855
O23	O	0.348100	0.646900	0.240600	-0.737609
O24	O	0.383600	0.672000	0.375000	-0.733098
O25	O	0.268800	0.710500	0.319900	-0.844213
O26	O	0.281300	0.581200	0.328100	-0.705476
O27	O	0.300700	0.842200	0.407100	-0.844213
O28	O	0.422000	0.814800	0.457200	-0.733098
O29	O	0.397300	0.941500	0.441000	-0.705476
O30	O	0.340600	0.873200	0.535700	-0.737609
O31	O	0.185570	0.813670	0.500870	-0.726271
O32	O	0.170100	0.650500	0.445000	-0.728144
O33	O	0.292500	0.188800	0.853600	-0.581301
O34	O	0.349800	0.135900	0.759800	-0.578795
O35	O	0.251700	0.876700	0.652100	-0.570724
O36	O	0.189600	0.813700	0.729800	-0.581301
O37	O	0.497630	0.294430	0.716930	-0.993678
O38	O	0.202000	0.711700	0.601000	-1.010855
O39	O	0.240600	0.348100	0.646900	-0.737609
O40	O	0.375000	0.383600	0.672000	-0.733098
O41	O	0.319900	0.268800	0.710500	-0.844213
O42	O	0.328100	0.281300	0.581200	-0.705476
O43	O	0.407100	0.300700	0.842200	-0.844213
O44	O	0.457200	0.422000	0.814800	-0.733098
O45	O	0.441000	0.397300	0.941500	-0.705476
O46	O	0.535700	0.340600	0.873200	-0.737609
O47	O	0.500870	0.185570	0.813670	-0.726271
O48	O	0.445000	0.170100	0.650500	-0.728144
O49	O	0.146400	0.707500	0.811200	-0.581301
O50	O	0.240200	0.650200	0.864100	-0.578795
O51	O	0.347900	0.748300	0.123300	-0.570724
O52	O	0.270200	0.810400	0.186300	-0.581301
O53	O	0.283070	0.502370	0.705570	-0.993678
O54	O	0.399000	0.798000	0.288300	-1.010855
O55	O	0.353100	0.759400	0.651900	-0.737609
O56	O	0.328000	0.625000	0.616400	-0.733098
O57	O	0.289500	0.680100	0.731200	-0.844213
O58	O	0.418800	0.671900	0.718700	-0.705476
O59	O	0.157800	0.592900	0.699300	-0.844213
O60	O	0.185200	0.542800	0.578000	-0.733098
O61	O	0.058500	0.559000	0.602700	-0.705476
O62	O	0.126800	0.464300	0.659400	-0.737609
O63	O	0.186330	0.499130	0.814430	-0.726271
O64	O	0.349500	0.555000	0.829900	-0.728144
O65	O	0.811200	0.146400	0.707500	-0.581301
O66	O	0.864100	0.240200	0.650200	-0.578795
O67	O	0.123300	0.347900	0.748300	-0.570724
O68	O	0.186300	0.270200	0.810400	-0.581301
O69	O	0.705570	0.283070	0.502370	-0.993678
O70	O	0.288300	0.399000	0.798000	-1.010855
O71	O	0.651900	0.353100	0.759400	-0.737609
O72	O	0.616400	0.328000	0.625000	-0.733098
O73	O	0.731200	0.289500	0.680100	-0.844213
O74	O	0.718700	0.418800	0.671900	-0.705476
O75	O	0.699300	0.157800	0.592900	-0.844213
O76	O	0.578000	0.185200	0.542800	-0.733098
O77	O	0.602700	0.058500	0.559000	-0.705476
O78	O	0.659400	0.126800	0.464300	-0.737609
O79	O	0.814430	0.186330	0.499130	-0.726271
O80	O	0.829900	0.349500	0.555000	-0.728144
O81	O	0.707500	0.811200	0.146400	-0.581301
O82	O	0.650200	0.864100	0.240200	-0.578795
O83	O	0.748300	0.123300	0.347900	-0.570724
O84	O	0.810400	0.186300	0.270200	-0.581301
O85	O	0.502370	0.705570	0.283070	-0.993678
O86	O	0.798000	0.288300	0.399000	-1.010855
O87	O	0.759400	0.651900	0.353100	-0.737609
O88	O	0.625000	0.616400	0.328000	-0.733098
O89	O	0.680100	0.731200	0.289500	-0.844213
O90	O	0.671900	0.718700	0.418800	-0.705476
O91	O	0.592900	0.699300	0.157800	-0.844213
O92	O	0.542800	0.578000	0.185200	-0.733098
O93	O	0.559000	0.602700	0.058500	-0.705476
O94	O	0.464300	0.659400	0.126800	-0.737609
O95	O	0.499130	0.814430	0.186330	-0.726271
O96	O	0.555000	0.829900	0.349500	-0.728144
