data_GEDSUF_clean_PM
_symmetry_space_group_name_H-M	'P1'
_cell_length_a	13.682399
_cell_length_b	15.001200
_cell_length_c	15.649000
_cell_angle_alpha	95.751001
_cell_angle_beta	113.162999
_cell_angle_gamma	90.492999
_symmetry_Int_Tables_number 1

loop_
_symmetry_equiv_pos_as_xyz
'x,y,z'

loop_
_atom_site_label
_atom_site_type_symbol
_atom_site_fract_x
_atom_site_fract_y
_atom_site_fract_z
_atom_site_charge
Nd1	Nd	0.506990	0.520270	0.133960	2.260866
Nd2	Nd	0.889670	0.968510	0.868940	2.238633
Nd3	Nd	0.493010	0.479730	0.866040	2.260866
Nd4	Nd	0.110330	0.031490	0.131060	2.238633
H1	H	0.869000	0.461000	0.383800	0.098708
H2	H	0.980400	0.403700	0.516700	0.101788
H3	H	0.729300	0.296600	0.547400	0.101788
H4	H	0.618000	0.355300	0.415000	0.098708
H5	H	0.213200	0.392400	0.797600	0.117057
H6	H	0.233200	0.269800	0.021500	0.100330
H7	H	0.986200	0.209000	0.775100	0.117057
H8	H	0.729600	0.063300	0.546300	0.099317
H9	H	0.726700	0.115100	0.411800	0.101788
H10	H	0.045500	0.119700	0.516200	0.101788
H11	H	0.046300	0.064000	0.648700	0.099317
H12	H	0.686100	0.291200	0.207400	0.117057
H13	H	0.722400	0.236200	0.965700	0.100330
H14	H	0.883200	0.103400	0.185900	0.117057
H15	H	0.315400	0.664100	0.158700	0.072874
H16	H	0.174200	0.691300	0.199000	0.127981
H17	H	0.115600	0.558200	0.242200	0.092974
H18	H	0.210600	0.431900	0.277300	0.127981
H19	H	0.364300	0.438500	0.244300	0.072874
H20	H	0.623100	0.028800	0.784100	0.072443
H21	H	0.446300	0.982900	0.743900	0.127981
H22	H	0.403300	0.832500	0.743500	0.092974
H23	H	0.537100	0.735200	0.790800	0.127981
H24	H	0.709100	0.784200	0.830400	0.072443
H25	H	0.889000	0.268000	0.657000	0.062853
H26	H	0.940000	0.161000	0.347000	0.062853
H27	H	0.131000	0.539000	0.616200	0.098708
H28	H	0.019600	0.596300	0.483300	0.101788
H29	H	0.270700	0.703400	0.452600	0.101788
H30	H	0.382000	0.644700	0.585000	0.098708
H31	H	0.786800	0.607600	0.202400	0.117057
H32	H	0.766800	0.730200	0.978500	0.100330
H33	H	0.013800	0.791000	0.224900	0.117057
H34	H	0.270400	0.936700	0.453700	0.099317
H35	H	0.273300	0.884900	0.588200	0.101788
H36	H	0.954500	0.880300	0.483800	0.101788
H37	H	0.953700	0.936000	0.351300	0.099317
H38	H	0.313900	0.708800	0.792600	0.117057
H39	H	0.277600	0.763800	0.034300	0.100330
H40	H	0.116800	0.896600	0.814100	0.117057
H41	H	0.684600	0.335900	0.841300	0.072874
H42	H	0.825800	0.308700	0.801000	0.127981
H43	H	0.884400	0.441800	0.757800	0.092974
H44	H	0.789400	0.568100	0.722700	0.127981
H45	H	0.635700	0.561500	0.755700	0.072874
H46	H	0.376900	0.971200	0.215900	0.072443
H47	H	0.553700	0.017100	0.256100	0.127981
H48	H	0.596700	0.167500	0.256500	0.092974
H49	H	0.462900	0.264800	0.209200	0.127981
H50	H	0.290900	0.215800	0.169600	0.072443
H51	H	0.111000	0.732000	0.343000	0.062853
H52	H	0.060000	0.839000	0.653000	0.062853
C1	C	0.657200	0.459000	0.303800	0.756353
C2	C	0.731000	0.416900	0.386400	-0.141981
C3	C	0.840300	0.429100	0.417100	-0.039074
C4	C	0.907200	0.394200	0.496800	-0.127720
C5	C	0.867500	0.345500	0.547800	-0.026212
C6	C	0.757900	0.330600	0.515400	-0.127720
C7	C	0.691200	0.365900	0.435900	-0.039074
C8	C	0.934700	0.312300	0.636600	0.180416
C9	C	0.088300	0.306800	0.772500	0.220373
C10	C	0.184200	0.352900	0.824700	-0.099327
C11	C	0.237900	0.339700	0.919400	-0.141596
C12	C	0.197700	0.277700	0.958700	-0.001378
C13	C	0.104000	0.227000	0.904100	-0.134509
C14	C	0.049200	0.242100	0.811500	-0.097179
C15	C	0.334100	0.397000	0.982000	0.737578
C16	C	0.062600	0.155700	0.944300	0.744109
C17	C	0.889200	0.017900	0.696700	0.616790
C18	C	0.888400	0.057300	0.611800	-0.103453
C19	C	0.793400	0.073700	0.540000	-0.047037
C20	C	0.791400	0.105100	0.459300	-0.123265
C21	C	0.886100	0.121700	0.449300	-0.026212
C22	C	0.981400	0.107300	0.521400	-0.123265
C23	C	0.981800	0.074500	0.601300	-0.047037
C24	C	0.882200	0.151100	0.361200	0.180416
C25	C	0.786600	0.193500	0.210800	0.220373
C26	C	0.717500	0.258900	0.172000	-0.097179
C27	C	0.694200	0.277100	0.081000	-0.137951
C28	C	0.738500	0.225800	0.027300	-0.001378
C29	C	0.806800	0.158800	0.065600	-0.141098
C30	C	0.833600	0.145100	0.158800	-0.099327
C31	C	0.621000	0.350500	0.042700	0.751888
C32	C	0.842600	0.097100	0.003400	0.743283
C33	C	0.296800	0.619600	0.187700	0.225068
C34	C	0.208900	0.638000	0.205100	-0.181531
C35	C	0.180000	0.557100	0.235200	0.035220
C36	C	0.231400	0.480500	0.254700	-0.181531
C37	C	0.322600	0.488200	0.234200	0.225068
C38	C	0.605800	0.969100	0.785900	0.230888
C39	C	0.499200	0.941700	0.760800	-0.181890
C40	C	0.473800	0.852600	0.761400	0.035220
C41	C	0.552800	0.795200	0.788600	-0.181890
C42	C	0.655900	0.825000	0.812800	0.230888
C43	C	0.342800	0.541000	0.696200	0.756353
C44	C	0.269000	0.583100	0.613600	-0.141981
C45	C	0.159700	0.570900	0.582900	-0.039074
C46	C	0.092800	0.605800	0.503200	-0.127720
C47	C	0.132500	0.654500	0.452200	-0.026212
C48	C	0.242100	0.669400	0.484600	-0.127720
C49	C	0.308800	0.634100	0.564100	-0.039074
C50	C	0.065300	0.687700	0.363400	0.180416
C51	C	0.911700	0.693200	0.227500	0.220373
C52	C	0.815800	0.647100	0.175300	-0.099327
C53	C	0.762100	0.660300	0.080600	-0.141596
C54	C	0.802300	0.722300	0.041300	-0.001378
C55	C	0.896000	0.773000	0.095900	-0.134509
C56	C	0.950800	0.757900	0.188500	-0.097179
C57	C	0.665900	0.603000	0.018000	0.737578
C58	C	0.937400	0.844300	0.055700	0.744109
C59	C	0.110800	0.982100	0.303300	0.616790
C60	C	0.111600	0.942700	0.388200	-0.103453
C61	C	0.206600	0.926300	0.460000	-0.047037
C62	C	0.208600	0.894900	0.540700	-0.123265
C63	C	0.113900	0.878300	0.550700	-0.026212
C64	C	0.018600	0.892700	0.478600	-0.123265
C65	C	0.018200	0.925500	0.398700	-0.047037
C66	C	0.117800	0.848900	0.638800	0.180416
C67	C	0.213400	0.806500	0.789200	0.220373
C68	C	0.282500	0.741100	0.828000	-0.097179
C69	C	0.305800	0.722900	0.919000	-0.137951
C70	C	0.261500	0.774200	0.972700	-0.001378
C71	C	0.193200	0.841200	0.934400	-0.141098
C72	C	0.166400	0.854900	0.841200	-0.099327
C73	C	0.379000	0.649500	0.957300	0.751888
C74	C	0.157400	0.902900	0.996600	0.743283
C75	C	0.703200	0.380400	0.812300	0.225068
C76	C	0.791100	0.362000	0.794900	-0.181531
C77	C	0.820000	0.442900	0.764800	0.035220
C78	C	0.768600	0.519500	0.745300	-0.181531
C79	C	0.677400	0.511800	0.765800	0.225068
C80	C	0.394200	0.030900	0.214100	0.230888
C81	C	0.500800	0.058300	0.239200	-0.181890
C82	C	0.526200	0.147400	0.238600	0.035220
C83	C	0.447200	0.204800	0.211400	-0.181890
C84	C	0.344100	0.175000	0.187200	0.230888
N1	N	0.032300	0.332200	0.680300	-0.408584
N2	N	0.796500	0.172800	0.300500	-0.408584
N3	N	0.358800	0.556000	0.202200	-0.477004
N4	N	0.683500	0.911600	0.812300	-0.476895
N5	N	0.967700	0.667800	0.319700	-0.408584
N6	N	0.203500	0.827200	0.699500	-0.408584
N7	N	0.641200	0.444000	0.797800	-0.477004
N8	N	0.316500	0.088400	0.187700	-0.476895
O1	O	0.556400	0.444000	0.278000	-0.733871
O2	O	0.693700	0.506500	0.261000	-0.733871
O3	O	0.357200	0.406300	0.069200	-0.669068
O4	O	0.389000	0.438700	0.947500	-0.867085
O5	O	0.977200	0.114100	0.892300	-0.726251
O6	O	0.117300	0.142500	0.029200	-0.726251
O7	O	0.577900	0.385600	0.094600	-0.733871
O8	O	0.606800	0.371800	0.963400	-0.733871
O9	O	0.971700	0.986300	0.749400	-0.669574
O10	O	0.803500	0.018400	0.710800	-0.669574
O11	O	0.786800	0.086600	0.916900	-0.665050
O12	O	0.924900	0.052500	0.038900	-0.870510
O13	O	0.443600	0.556000	0.722000	-0.733871
O14	O	0.306300	0.493500	0.739000	-0.733871
O15	O	0.642800	0.593700	0.930800	-0.669068
O16	O	0.611000	0.561300	0.052500	-0.867085
O17	O	0.022800	0.885900	0.107700	-0.726251
O18	O	0.882700	0.857500	0.970800	-0.726251
O19	O	0.422100	0.614400	0.905400	-0.733871
O20	O	0.393200	0.628200	0.036600	-0.733871
O21	O	0.028300	0.013700	0.250600	-0.669574
O22	O	0.196500	0.981600	0.289200	-0.669574
O23	O	0.213200	0.913400	0.083100	-0.665050
O24	O	0.075100	0.947500	0.961100	-0.870510
