data_GEPDIQ_clean_PM
_symmetry_space_group_name_H-M	'P1'
_cell_length_a	13.701000
_cell_length_b	15.048000
_cell_length_c	26.948000
_cell_angle_alpha	90.000000
_cell_angle_beta	90.000000
_cell_angle_gamma	108.776998
_symmetry_Int_Tables_number 1

loop_
_symmetry_equiv_pos_as_xyz
'x,y,z'

loop_
_atom_site_label
_atom_site_type_symbol
_atom_site_fract_x
_atom_site_fract_y
_atom_site_fract_z
_atom_site_charge
Cd1	Cd	0.736560	0.453720	0.580470	0.823357
Cd2	Cd	0.764810	0.026870	0.169860	0.823357
Cd3	Cd	0.763440	0.546280	0.080470	0.823357
Cd4	Cd	0.735190	0.973130	0.669860	0.823357
Cd5	Cd	0.263440	0.546280	0.419530	0.823357
Cd6	Cd	0.235190	0.973130	0.830140	0.823357
Cd7	Cd	0.236560	0.453720	0.919530	0.823357
Cd8	Cd	0.264810	0.026870	0.330140	0.823357
H1	H	0.812400	0.344800	0.165300	0.093293
H2	H	0.929800	0.354700	0.164900	0.093293
H3	H	0.679700	0.322600	0.206600	0.121645
H4	H	0.537800	0.290300	0.259000	0.086470
H5	H	0.554300	0.272600	0.342100	0.092209
H6	H	0.956200	0.351300	0.312800	0.092209
H7	H	0.969900	0.334700	0.396400	0.086470
H8	H	0.827000	0.295700	0.448100	0.121645
H9	H	0.566100	0.194000	0.479600	0.093293
H10	H	0.680900	0.197500	0.473700	0.093293
H11	H	0.798500	0.502400	0.704900	0.091212
H12	H	0.606100	0.271400	0.653200	0.110129
H13	H	0.583700	0.267100	0.742600	0.126663
H14	H	0.869400	0.451700	0.796000	0.134523
H15	H	0.744700	0.467300	0.929100	0.134523
H16	H	0.562800	0.394200	0.808800	0.134523
H17	H	0.586100	0.396700	0.973900	0.126663
H18	H	0.417200	0.401700	0.995000	0.110129
H19	H	0.450300	0.448900	0.854000	0.091212
H20	H	0.995600	0.409100	0.851000	0.091212
H21	H	0.086300	0.566100	0.967300	0.110129
H22	H	0.918000	0.574300	0.946200	0.126663
H23	H	0.780800	0.063300	0.042100	0.091212
H24	H	0.660200	0.822900	0.106500	0.110129
H25	H	0.637200	0.796200	0.017600	0.126663
H26	H	0.986500	0.903100	0.885900	0.091212
H27	H	0.093200	0.102600	0.792700	0.110129
H28	H	0.934300	0.114300	0.819800	0.126663
H29	H	0.875300	0.980600	0.952100	0.134523
H30	H	0.566500	0.925900	0.945500	0.134523
H31	H	0.733300	0.960900	0.820100	0.134523
H32	H	0.568800	0.880700	0.781700	0.126663
H33	H	0.456800	0.982700	0.896000	0.091212
H34	H	0.401100	0.892800	0.759400	0.110129
H35	H	0.687600	0.655200	0.665300	0.093293
H36	H	0.570200	0.645300	0.664900	0.093293
H37	H	0.820300	0.677400	0.706600	0.121645
H38	H	0.962200	0.709700	0.759000	0.086470
H39	H	0.945700	0.727400	0.842100	0.092209
H40	H	0.543800	0.648700	0.812800	0.092209
H41	H	0.530100	0.665300	0.896400	0.086470
H42	H	0.673000	0.704300	0.948100	0.121645
H43	H	0.933900	0.806000	0.979600	0.093293
H44	H	0.819100	0.802500	0.973700	0.093293
H45	H	0.701500	0.497600	0.204900	0.091212
H46	H	0.893900	0.728600	0.153200	0.110129
H47	H	0.916300	0.732900	0.242600	0.126663
H48	H	0.630600	0.548300	0.296000	0.134523
H49	H	0.755300	0.532700	0.429100	0.134523
H50	H	0.937200	0.605800	0.308800	0.134523
H51	H	0.913900	0.603300	0.473900	0.126663
H52	H	0.082800	0.598300	0.495000	0.110129
H53	H	0.049700	0.551100	0.354000	0.091212
H54	H	0.504400	0.590900	0.351000	0.091212
H55	H	0.413700	0.433900	0.467300	0.110129
H56	H	0.582000	0.425700	0.446200	0.126663
H57	H	0.719200	0.936700	0.542100	0.091212
H58	H	0.839800	0.177100	0.606500	0.110129
H59	H	0.862800	0.203800	0.517600	0.126663
H60	H	0.513500	0.096900	0.385900	0.091212
H61	H	0.406800	0.897400	0.292700	0.110129
H62	H	0.565700	0.885700	0.319800	0.126663
H63	H	0.624700	0.019400	0.452100	0.134523
H64	H	0.933500	0.074100	0.445500	0.134523
H65	H	0.766700	0.039100	0.320100	0.134523
H66	H	0.931200	0.119300	0.281700	0.126663
H67	H	0.043200	0.017300	0.396000	0.091212
H68	H	0.098900	0.107200	0.259400	0.110129
H69	H	0.187600	0.655200	0.834700	0.093293
H70	H	0.070200	0.645300	0.835100	0.093293
H71	H	0.320300	0.677400	0.793400	0.121645
H72	H	0.462200	0.709700	0.741000	0.086470
H73	H	0.445700	0.727400	0.657900	0.092209
H74	H	0.043800	0.648700	0.687200	0.092209
H75	H	0.030100	0.665300	0.603600	0.086470
H76	H	0.173000	0.704300	0.551900	0.121645
H77	H	0.433900	0.806000	0.520400	0.093293
H78	H	0.319100	0.802500	0.526300	0.093293
H79	H	0.201500	0.497600	0.295100	0.091212
H80	H	0.393900	0.728600	0.346800	0.110129
H81	H	0.416300	0.732900	0.257400	0.126663
H82	H	0.130600	0.548300	0.204000	0.134523
H83	H	0.255300	0.532700	0.070900	0.134523
H84	H	0.437200	0.605800	0.191200	0.134523
H85	H	0.413900	0.603300	0.026100	0.126663
H86	H	0.582800	0.598300	0.005000	0.110129
H87	H	0.549700	0.551100	0.146000	0.091212
H88	H	0.004400	0.590900	0.149000	0.091212
H89	H	0.913700	0.433900	0.032700	0.110129
H90	H	0.082000	0.425700	0.053800	0.126663
H91	H	0.219200	0.936700	0.957900	0.091212
H92	H	0.339800	0.177100	0.893500	0.110129
H93	H	0.362800	0.203800	0.982400	0.126663
H94	H	0.013500	0.096900	0.114100	0.091212
H95	H	0.906800	0.897400	0.207300	0.110129
H96	H	0.065700	0.885700	0.180200	0.126663
H97	H	0.124700	0.019400	0.047900	0.134523
H98	H	0.433500	0.074100	0.054500	0.134523
H99	H	0.266700	0.039100	0.179900	0.134523
H100	H	0.431200	0.119300	0.218300	0.126663
H101	H	0.543200	0.017300	0.104000	0.091212
H102	H	0.598900	0.107200	0.240600	0.110129
H103	H	0.312400	0.344800	0.334700	0.093293
H104	H	0.429800	0.354700	0.335100	0.093293
H105	H	0.179700	0.322600	0.293400	0.121645
H106	H	0.037800	0.290300	0.241000	0.086470
H107	H	0.054300	0.272600	0.157900	0.092209
H108	H	0.456200	0.351300	0.187200	0.092209
H109	H	0.469900	0.334700	0.103600	0.086470
H110	H	0.327000	0.295700	0.051900	0.121645
H111	H	0.066100	0.194000	0.020400	0.093293
H112	H	0.180900	0.197500	0.026300	0.093293
H113	H	0.298500	0.502400	0.795100	0.091212
H114	H	0.106100	0.271400	0.846800	0.110129
H115	H	0.083700	0.267100	0.757400	0.126663
H116	H	0.369400	0.451700	0.704000	0.134523
H117	H	0.244700	0.467300	0.570900	0.134523
H118	H	0.062800	0.394200	0.691200	0.134523
H119	H	0.086100	0.396700	0.526100	0.126663
H120	H	0.917200	0.401700	0.505000	0.110129
H121	H	0.950300	0.448900	0.646000	0.091212
H122	H	0.495600	0.409100	0.649000	0.091212
H123	H	0.586300	0.566100	0.532700	0.110129
H124	H	0.418000	0.574300	0.553800	0.126663
H125	H	0.280800	0.063300	0.457900	0.091212
H126	H	0.160200	0.822900	0.393500	0.110129
H127	H	0.137200	0.796200	0.482400	0.126663
H128	H	0.486500	0.903100	0.614100	0.091212
H129	H	0.593200	0.102600	0.707300	0.110129
H130	H	0.434300	0.114300	0.680200	0.126663
H131	H	0.375300	0.980600	0.547900	0.134523
H132	H	0.066500	0.925900	0.554500	0.134523
H133	H	0.233300	0.960900	0.679900	0.134523
H134	H	0.068800	0.880700	0.718300	0.126663
H135	H	0.956800	0.982700	0.604000	0.091212
H136	H	0.901100	0.892800	0.740600	0.110129
C1	C	0.837300	0.218800	0.176100	0.649399
C2	C	0.864800	0.324600	0.181650	-0.084391
C3	C	0.785400	0.332000	0.259600	0.214004
C4	C	0.688400	0.318200	0.240600	-0.251784
C5	C	0.602500	0.297600	0.272300	-0.053592
C6	C	0.612400	0.288200	0.321900	-0.130762
C7	C	0.710900	0.301900	0.343100	-0.057468
C8	C	0.799800	0.324600	0.311900	-0.057468
C9	C	0.897800	0.336500	0.332800	-0.130762
C10	C	0.905200	0.326100	0.382700	-0.053592
C11	C	0.819600	0.302900	0.414100	-0.251784
C12	C	0.725500	0.291000	0.394220	0.214004
C13	C	0.635000	0.234800	0.471670	-0.084391
C14	C	0.667500	0.312300	0.510400	0.649399
C15	C	0.748000	0.443800	0.703030	0.088797
C16	C	0.642700	0.318100	0.675100	0.033785
C17	C	0.630200	0.314800	0.724410	-0.164306
C18	C	0.714000	0.420200	0.793820	0.160114
C19	C	0.811600	0.445700	0.815500	-0.257784
C20	C	0.822000	0.461900	0.865490	0.160114
C21	C	0.737000	0.455700	0.895210	-0.257784
C22	C	0.640000	0.431600	0.872990	0.160114
C23	C	0.628100	0.412400	0.822980	-0.257784
C24	C	0.538700	0.407800	0.952100	-0.164306
C25	C	0.445500	0.410600	0.963320	0.033785
C26	C	0.462800	0.436300	0.886700	0.088797
C27	C	0.997700	0.449100	0.877620	0.088797
C28	C	0.046300	0.534900	0.940840	0.033785
C29	C	0.953400	0.539800	0.929620	-0.164306
C30	C	0.747000	0.999700	0.047200	0.088797
C31	C	0.681400	0.868900	0.082200	0.033785
C32	C	0.668900	0.853600	0.033000	-0.164306
C33	C	0.991100	0.951900	0.863900	0.088797
C34	C	0.047200	0.052500	0.809500	0.033785
C35	C	0.959200	0.065100	0.826900	-0.164306
C36	C	0.815200	0.969200	0.933600	-0.257784
C37	C	0.719900	0.950100	0.957000	0.160114
C38	C	0.629700	0.937800	0.929600	-0.257784
C39	C	0.636800	0.943600	0.878600	0.160114
C40	C	0.729900	0.958800	0.854600	-0.257784
C41	C	0.818700	0.970800	0.882800	0.160114
C42	C	0.526400	0.902700	0.801900	-0.164306
C43	C	0.463700	0.959500	0.864700	0.088797
C44	C	0.434000	0.910200	0.789800	0.033785
C45	C	0.662700	0.781200	0.676100	0.649399
C46	C	0.635200	0.675400	0.681650	-0.084391
C47	C	0.714600	0.668000	0.759600	0.214004
C48	C	0.811600	0.681800	0.740600	-0.251784
C49	C	0.897500	0.702400	0.772300	-0.053592
C50	C	0.887600	0.711800	0.821900	-0.130762
C51	C	0.789100	0.698100	0.843100	-0.057468
C52	C	0.700200	0.675400	0.811900	-0.057468
C53	C	0.602200	0.663500	0.832800	-0.130762
C54	C	0.594800	0.673900	0.882700	-0.053592
C55	C	0.680400	0.697100	0.914100	-0.251784
C56	C	0.774500	0.709000	0.894220	0.214004
C57	C	0.865000	0.765200	0.971670	-0.084391
C58	C	0.832500	0.687700	0.010400	0.649399
C59	C	0.752000	0.556200	0.203030	0.088797
C60	C	0.857300	0.681900	0.175100	0.033785
C61	C	0.869800	0.685200	0.224410	-0.164306
C62	C	0.786000	0.579800	0.293820	0.160114
C63	C	0.688400	0.554300	0.315500	-0.257784
C64	C	0.678000	0.538100	0.365490	0.160114
C65	C	0.763000	0.544300	0.395210	-0.257784
C66	C	0.860000	0.568400	0.372990	0.160114
C67	C	0.871900	0.587600	0.322980	-0.257784
C68	C	0.961300	0.592200	0.452100	-0.164306
C69	C	0.054500	0.589400	0.463320	0.033785
C70	C	0.037200	0.563700	0.386700	0.088797
C71	C	0.502300	0.550900	0.377620	0.088797
C72	C	0.453700	0.465100	0.440840	0.033785
C73	C	0.546600	0.460200	0.429620	-0.164306
C74	C	0.753000	0.000300	0.547200	0.088797
C75	C	0.818600	0.131100	0.582200	0.033785
C76	C	0.831100	0.146400	0.533000	-0.164306
C77	C	0.508900	0.048100	0.363900	0.088797
C78	C	0.452800	0.947500	0.309500	0.033785
C79	C	0.540800	0.934900	0.326900	-0.164306
C80	C	0.684800	0.030800	0.433600	-0.257784
C81	C	0.780100	0.049900	0.457000	0.160114
C82	C	0.870300	0.062200	0.429600	-0.257784
C83	C	0.863200	0.056400	0.378600	0.160114
C84	C	0.770100	0.041200	0.354600	-0.257784
C85	C	0.681300	0.029200	0.382800	0.160114
C86	C	0.973600	0.097300	0.301900	-0.164306
C87	C	0.036300	0.040500	0.364700	0.088797
C88	C	0.066000	0.089800	0.289800	0.033785
C89	C	0.162700	0.781200	0.823900	0.649399
C90	C	0.135200	0.675400	0.818350	-0.084391
C91	C	0.214600	0.668000	0.740400	0.214004
C92	C	0.311600	0.681800	0.759400	-0.251784
C93	C	0.397500	0.702400	0.727700	-0.053592
C94	C	0.387600	0.711800	0.678100	-0.130762
C95	C	0.289100	0.698100	0.656900	-0.057468
C96	C	0.200200	0.675400	0.688100	-0.057468
C97	C	0.102200	0.663500	0.667200	-0.130762
C98	C	0.094800	0.673900	0.617300	-0.053592
C99	C	0.180400	0.697100	0.585900	-0.251784
C100	C	0.274500	0.709000	0.605780	0.214004
C101	C	0.365000	0.765200	0.528330	-0.084391
C102	C	0.332500	0.687700	0.489600	0.649399
C103	C	0.252000	0.556200	0.296970	0.088797
C104	C	0.357300	0.681900	0.324900	0.033785
C105	C	0.369800	0.685200	0.275590	-0.164306
C106	C	0.286000	0.579800	0.206180	0.160114
C107	C	0.188400	0.554300	0.184500	-0.257784
C108	C	0.178000	0.538100	0.134510	0.160114
C109	C	0.263000	0.544300	0.104790	-0.257784
C110	C	0.360000	0.568400	0.127010	0.160114
C111	C	0.371900	0.587600	0.177020	-0.257784
C112	C	0.461300	0.592200	0.047900	-0.164306
C113	C	0.554500	0.589400	0.036680	0.033785
C114	C	0.537200	0.563700	0.113300	0.088797
C115	C	0.002300	0.550900	0.122380	0.088797
C116	C	0.953700	0.465100	0.059160	0.033785
C117	C	0.046600	0.460200	0.070380	-0.164306
C118	C	0.253000	0.000300	0.952800	0.088797
C119	C	0.318600	0.131100	0.917800	0.033785
C120	C	0.331100	0.146400	0.967000	-0.164306
C121	C	0.008900	0.048100	0.136100	0.088797
C122	C	0.952800	0.947500	0.190500	0.033785
C123	C	0.040800	0.934900	0.173100	-0.164306
C124	C	0.184800	0.030800	0.066400	-0.257784
C125	C	0.280100	0.049900	0.043000	0.160114
C126	C	0.370300	0.062200	0.070400	-0.257784
C127	C	0.363200	0.056400	0.121400	0.160114
C128	C	0.270100	0.041200	0.145400	-0.257784
C129	C	0.181300	0.029200	0.117200	0.160114
C130	C	0.473600	0.097300	0.198100	-0.164306
C131	C	0.536300	0.040500	0.135300	0.088797
C132	C	0.566000	0.089800	0.210200	0.033785
C133	C	0.337300	0.218800	0.323900	0.649399
C134	C	0.364800	0.324600	0.318350	-0.084391
C135	C	0.285400	0.332000	0.240400	0.214004
C136	C	0.188400	0.318200	0.259400	-0.251784
C137	C	0.102500	0.297600	0.227700	-0.053592
C138	C	0.112400	0.288200	0.178100	-0.130762
C139	C	0.210900	0.301900	0.156900	-0.057468
C140	C	0.299800	0.324600	0.188100	-0.057468
C141	C	0.397800	0.336500	0.167200	-0.130762
C142	C	0.405200	0.326100	0.117300	-0.053592
C143	C	0.319600	0.302900	0.085900	-0.251784
C144	C	0.225500	0.291000	0.105780	0.214004
C145	C	0.135000	0.234800	0.028330	-0.084391
C146	C	0.167500	0.312300	0.989600	0.649399
C147	C	0.248000	0.443800	0.796970	0.088797
C148	C	0.142700	0.318100	0.824900	0.033785
C149	C	0.130200	0.314800	0.775590	-0.164306
C150	C	0.214000	0.420200	0.706180	0.160114
C151	C	0.311600	0.445700	0.684500	-0.257784
C152	C	0.322000	0.461900	0.634510	0.160114
C153	C	0.237000	0.455700	0.604790	-0.257784
C154	C	0.140000	0.431600	0.627010	0.160114
C155	C	0.128100	0.412400	0.677020	-0.257784
C156	C	0.038700	0.407800	0.547900	-0.164306
C157	C	0.945500	0.410600	0.536680	0.033785
C158	C	0.962800	0.436300	0.613300	0.088797
C159	C	0.497700	0.449100	0.622380	0.088797
C160	C	0.546300	0.534900	0.559160	0.033785
C161	C	0.453400	0.539800	0.570380	-0.164306
C162	C	0.247000	0.999700	0.452800	0.088797
C163	C	0.181400	0.868900	0.417800	0.033785
C164	C	0.168900	0.853600	0.467000	-0.164306
C165	C	0.491100	0.951900	0.636100	0.088797
C166	C	0.547200	0.052500	0.690500	0.033785
C167	C	0.459200	0.065100	0.673100	-0.164306
C168	C	0.315200	0.969200	0.566400	-0.257784
C169	C	0.219900	0.950100	0.543000	0.160114
C170	C	0.129700	0.937800	0.570400	-0.257784
C171	C	0.136800	0.943600	0.621400	0.160114
C172	C	0.229900	0.958800	0.645400	-0.257784
C173	C	0.318700	0.970800	0.617200	0.160114
C174	C	0.026400	0.902700	0.698100	-0.164306
C175	C	0.963700	0.959500	0.635300	0.088797
C176	C	0.934000	0.910200	0.710200	0.033785
N1	N	0.729400	0.961700	0.090800	-0.390270
N2	N	0.711700	0.938200	0.009810	0.028275
N3	N	0.545800	0.934000	0.850260	0.028275
N4	N	0.395200	0.947600	0.828940	-0.390270
N5	N	0.914900	0.988900	0.857560	0.028275
N6	N	0.071500	0.990000	0.836730	-0.390270
N7	N	0.716200	0.399200	0.661420	-0.390270
N8	N	0.699400	0.395600	0.742970	0.028275
N9	N	0.551500	0.424400	0.902430	0.028275
N10	N	0.397000	0.428200	0.922630	-0.390270
N11	N	0.920900	0.484400	0.889150	0.028275
N12	N	0.075200	0.478500	0.908660	-0.390270
N13	N	0.770600	0.038300	0.590800	-0.390270
N14	N	0.788300	0.061800	0.509810	0.028275
N15	N	0.954200	0.066000	0.350260	0.028275
N16	N	0.104800	0.052400	0.328940	-0.390270
N17	N	0.585100	0.011100	0.357560	0.028275
N18	N	0.428500	0.010000	0.336730	-0.390270
N19	N	0.783800	0.600800	0.161420	-0.390270
N20	N	0.800600	0.604400	0.242970	0.028275
N21	N	0.948500	0.575600	0.402430	0.028275
N22	N	0.103000	0.571800	0.422630	-0.390270
N23	N	0.579100	0.515600	0.389150	0.028275
N24	N	0.424800	0.521500	0.408660	-0.390270
N25	N	0.270600	0.038300	0.909200	-0.390270
N26	N	0.288300	0.061800	0.990190	0.028275
N27	N	0.454200	0.066000	0.149740	0.028275
N28	N	0.604800	0.052400	0.171060	-0.390270
N29	N	0.085100	0.011100	0.142440	0.028275
N30	N	0.928500	0.010000	0.163270	-0.390270
N31	N	0.283800	0.600800	0.338580	-0.390270
N32	N	0.300600	0.604400	0.257030	0.028275
N33	N	0.448500	0.575600	0.097570	0.028275
N34	N	0.603000	0.571800	0.077370	-0.390270
N35	N	0.079100	0.515600	0.110850	0.028275
N36	N	0.924800	0.521500	0.091340	-0.390270
N37	N	0.229400	0.961700	0.409200	-0.390270
N38	N	0.211700	0.938200	0.490190	0.028275
N39	N	0.045800	0.934000	0.649740	0.028275
N40	N	0.895200	0.947600	0.671060	-0.390270
N41	N	0.414900	0.988900	0.642440	0.028275
N42	N	0.571500	0.990000	0.663270	-0.390270
N43	N	0.216200	0.399200	0.838580	-0.390270
N44	N	0.199400	0.395600	0.757030	0.028275
N45	N	0.051500	0.424400	0.597570	0.028275
N46	N	0.897000	0.428200	0.577370	-0.390270
N47	N	0.420900	0.484400	0.610850	0.028275
N48	N	0.575200	0.478500	0.591340	-0.390270
O1	O	0.705800	0.394800	0.497740	-0.600582
O2	O	0.635400	0.267300	0.421850	-0.239582
O3	O	0.873600	0.355400	0.232100	-0.239582
O4	O	0.824600	0.167800	0.213870	-0.600582
O5	O	0.651500	0.283700	0.554540	-0.638922
O6	O	0.829300	0.187300	0.132410	-0.638922
O7	O	0.794200	0.605200	0.997740	-0.600582
O8	O	0.864600	0.732700	0.921850	-0.239582
O9	O	0.626400	0.644600	0.732100	-0.239582
O10	O	0.675400	0.832200	0.713870	-0.600582
O11	O	0.848500	0.716300	0.054540	-0.638922
O12	O	0.670700	0.812700	0.632410	-0.638922
O13	O	0.294200	0.605200	0.502260	-0.600582
O14	O	0.364600	0.732700	0.578150	-0.239582
O15	O	0.126400	0.644600	0.767900	-0.239582
O16	O	0.175400	0.832200	0.786130	-0.600582
O17	O	0.348500	0.716300	0.445460	-0.638922
O18	O	0.170700	0.812700	0.867590	-0.638922
O19	O	0.205800	0.394800	0.002260	-0.600582
O20	O	0.135400	0.267300	0.078150	-0.239582
O21	O	0.373600	0.355400	0.267900	-0.239582
O22	O	0.324600	0.167800	0.286130	-0.600582
O23	O	0.151500	0.283700	0.945460	-0.638922
O24	O	0.329300	0.187300	0.367590	-0.638922
