data_GERWEH_clean_PM
_symmetry_space_group_name_H-M	'P1'
_cell_length_a	9.105000
_cell_length_b	17.492000
_cell_length_c	17.492000
_cell_angle_alpha	90.000000
_cell_angle_beta	90.000000
_cell_angle_gamma	90.000000
_symmetry_Int_Tables_number 1

loop_
_symmetry_equiv_pos_as_xyz
'x,y,z'

loop_
_atom_site_label
_atom_site_type_symbol
_atom_site_fract_x
_atom_site_fract_y
_atom_site_fract_z
_atom_site_charge
Cu1	Cu	0.415130	0.956280	0.543720	0.891893
Cu2	Cu	0.415130	0.543720	0.956280	0.891893
Cu3	Cu	0.415130	0.956280	0.956280	0.891893
Cu4	Cu	0.415130	0.543720	0.543720	0.891893
Cu5	Cu	0.584870	0.043720	0.043720	0.891893
Cu6	Cu	0.584870	0.456280	0.456280	0.891893
Cu7	Cu	0.584870	0.043720	0.456280	0.891893
Cu8	Cu	0.584870	0.456280	0.043720	0.891893
Si1	Si	0.000000	0.750000	0.250000	0.846883
Si2	Si	0.000000	0.250000	0.750000	0.846883
H1	H	0.860100	0.864800	0.348300	0.091579
H2	H	0.860100	0.635200	0.151700	0.091579
H3	H	0.860100	0.151700	0.864800	0.091579
H4	H	0.860100	0.348300	0.635200	0.091579
H5	H	0.139900	0.135200	0.848300	0.091579
H6	H	0.139900	0.364800	0.651700	0.091579
H7	H	0.139900	0.848300	0.364800	0.091579
H8	H	0.139900	0.651700	0.135200	0.091579
H9	H	0.139900	0.135200	0.651700	0.091579
H10	H	0.139900	0.364800	0.848300	0.091579
H11	H	0.139900	0.848300	0.135200	0.091579
H12	H	0.139900	0.651700	0.364800	0.091579
H13	H	0.860100	0.864800	0.151700	0.091579
H14	H	0.860100	0.635200	0.348300	0.091579
H15	H	0.860100	0.151700	0.635200	0.091579
H16	H	0.860100	0.348300	0.864800	0.091579
H17	H	0.610400	0.750000	0.497800	0.108447
H18	H	0.610400	0.750000	0.002200	0.108447
H19	H	0.610400	0.002200	0.750000	0.108447
H20	H	0.610400	0.497800	0.750000	0.108447
H21	H	0.389600	0.250000	0.997800	0.108447
H22	H	0.389600	0.250000	0.502200	0.108447
H23	H	0.389600	0.997800	0.250000	0.108447
H24	H	0.389600	0.502200	0.250000	0.108447
C1	C	0.826900	0.818550	0.368100	0.056900
C2	C	0.725200	0.818700	0.427700	-0.162836
C3	C	0.658800	0.890500	0.458400	0.672100
C4	C	0.826900	0.681450	0.131900	0.056900
C5	C	0.725200	0.681300	0.072300	-0.162836
C6	C	0.658800	0.609500	0.041600	0.672100
C7	C	0.826900	0.131900	0.818550	0.056900
C8	C	0.725200	0.072300	0.818700	-0.162836
C9	C	0.658800	0.041600	0.890500	0.672100
C10	C	0.826900	0.368100	0.681450	0.056900
C11	C	0.725200	0.427700	0.681300	-0.162836
C12	C	0.658800	0.458400	0.609500	0.672100
C13	C	0.173100	0.181450	0.868100	0.056900
C14	C	0.274800	0.181300	0.927700	-0.162836
C15	C	0.341200	0.109500	0.958400	0.672100
C16	C	0.173100	0.318550	0.631900	0.056900
C17	C	0.274800	0.318700	0.572300	-0.162836
C18	C	0.341200	0.390500	0.541600	0.672100
C19	C	0.173100	0.868100	0.318550	0.056900
C20	C	0.274800	0.927700	0.318700	-0.162836
C21	C	0.341200	0.958400	0.390500	0.672100
C22	C	0.173100	0.631900	0.181450	0.056900
C23	C	0.274800	0.572300	0.181300	-0.162836
C24	C	0.341200	0.541600	0.109500	0.672100
C25	C	0.173100	0.181450	0.631900	0.056900
C26	C	0.274800	0.181300	0.572300	-0.162836
C27	C	0.341200	0.109500	0.541600	0.672100
C28	C	0.173100	0.318550	0.868100	0.056900
C29	C	0.274800	0.318700	0.927700	-0.162836
C30	C	0.341200	0.390500	0.958400	0.672100
C31	C	0.173100	0.868100	0.181450	0.056900
C32	C	0.274800	0.927700	0.181300	-0.162836
C33	C	0.341200	0.958400	0.109500	0.672100
C34	C	0.173100	0.631900	0.318550	0.056900
C35	C	0.274800	0.572300	0.318700	-0.162836
C36	C	0.341200	0.541600	0.390500	0.672100
C37	C	0.826900	0.818550	0.131900	0.056900
C38	C	0.725200	0.818700	0.072300	-0.162836
C39	C	0.658800	0.890500	0.041600	0.672100
C40	C	0.826900	0.681450	0.368100	0.056900
C41	C	0.725200	0.681300	0.427700	-0.162836
C42	C	0.658800	0.609500	0.458400	0.672100
C43	C	0.826900	0.131900	0.681450	0.056900
C44	C	0.725200	0.072300	0.681300	-0.162836
C45	C	0.658800	0.041600	0.609500	0.672100
C46	C	0.826900	0.368100	0.818550	0.056900
C47	C	0.725200	0.427700	0.818700	-0.162836
C48	C	0.658800	0.458400	0.890500	0.672100
C49	C	0.879500	0.750000	0.337500	-0.336037
C50	C	0.676700	0.750000	0.457300	0.013214
C51	C	0.879500	0.750000	0.162500	-0.336037
C52	C	0.676700	0.750000	0.042700	0.013214
C53	C	0.879500	0.162500	0.750000	-0.336037
C54	C	0.676700	0.042700	0.750000	0.013214
C55	C	0.879500	0.337500	0.750000	-0.336037
C56	C	0.676700	0.457300	0.750000	0.013214
C57	C	0.120500	0.250000	0.837500	-0.336037
C58	C	0.323300	0.250000	0.957300	0.013214
C59	C	0.120500	0.250000	0.662500	-0.336037
C60	C	0.323300	0.250000	0.542700	0.013214
C61	C	0.120500	0.837500	0.250000	-0.336037
C62	C	0.323300	0.957300	0.250000	0.013214
C63	C	0.120500	0.662500	0.250000	-0.336037
C64	C	0.323300	0.542700	0.250000	0.013214
O1	O	0.558900	0.882200	0.506210	-0.551181
O2	O	0.704500	0.953000	0.432500	-0.551181
O3	O	0.558900	0.617800	0.993790	-0.551181
O4	O	0.704500	0.547000	0.067500	-0.551181
O5	O	0.558900	0.993790	0.882200	-0.551181
O6	O	0.704500	0.067500	0.953000	-0.551181
O7	O	0.558900	0.506210	0.617800	-0.551181
O8	O	0.704500	0.432500	0.547000	-0.551181
O9	O	0.441100	0.117800	0.006210	-0.551181
O10	O	0.295500	0.047000	0.932500	-0.551181
O11	O	0.441100	0.382200	0.493790	-0.551181
O12	O	0.295500	0.453000	0.567500	-0.551181
O13	O	0.441100	0.006210	0.382200	-0.551181
O14	O	0.295500	0.932500	0.453000	-0.551181
O15	O	0.441100	0.493790	0.117800	-0.551181
O16	O	0.295500	0.567500	0.047000	-0.551181
O17	O	0.441100	0.117800	0.493790	-0.551181
O18	O	0.295500	0.047000	0.567500	-0.551181
O19	O	0.441100	0.382200	0.006210	-0.551181
O20	O	0.295500	0.453000	0.932500	-0.551181
O21	O	0.441100	0.006210	0.117800	-0.551181
O22	O	0.295500	0.932500	0.047000	-0.551181
O23	O	0.441100	0.493790	0.382200	-0.551181
O24	O	0.295500	0.567500	0.453000	-0.551181
O25	O	0.558900	0.882200	0.993790	-0.551181
O26	O	0.704500	0.953000	0.067500	-0.551181
O27	O	0.558900	0.617800	0.506210	-0.551181
O28	O	0.704500	0.547000	0.432500	-0.551181
O29	O	0.558900	0.993790	0.617800	-0.551181
O30	O	0.704500	0.067500	0.547000	-0.551181
O31	O	0.558900	0.506210	0.882200	-0.551181
O32	O	0.704500	0.432500	0.953000	-0.551181
