data_GIQYOV_clean_PM
_symmetry_space_group_name_H-M	'P1'
_cell_length_a	9.940200
_cell_length_b	9.940200
_cell_length_c	15.690000
_cell_angle_alpha	92.466200
_cell_angle_beta	92.466200
_cell_angle_gamma	97.178103
_symmetry_Int_Tables_number 1

loop_
_symmetry_equiv_pos_as_xyz
'x,y,z'

loop_
_atom_site_label
_atom_site_type_symbol
_atom_site_fract_x
_atom_site_fract_y
_atom_site_fract_z
_atom_site_charge
Pr1	Pr	0.010580	0.989420	0.750000	2.323938
Pr2	Pr	0.989420	0.010580	0.250000	2.323938
P1	P	0.356830	0.046350	0.641610	1.438057
P2	P	0.649740	0.977400	0.651670	1.438057
P3	P	0.953650	0.643170	0.858390	1.438057
P4	P	0.022600	0.350260	0.848330	1.438057
P5	P	0.643170	0.953650	0.358390	1.438057
P6	P	0.350260	0.022600	0.348330	1.438057
P7	P	0.046350	0.356830	0.141610	1.438057
P8	P	0.977400	0.649740	0.151670	1.438057
H1	H	0.430100	0.847500	0.720700	0.371757
H2	H	0.930200	0.119000	0.887300	0.429953
H3	H	0.849300	0.985500	0.878700	0.429953
H4	H	0.549600	0.128600	0.830600	0.121118
H5	H	0.647200	0.176600	0.756200	0.121118
H6	H	0.496600	0.217600	0.756600	0.121118
H7	H	0.152500	0.569900	0.779300	0.371757
H8	H	0.881000	0.069800	0.612700	0.429953
H9	H	0.014500	0.150700	0.621300	0.429953
H10	H	0.871400	0.450400	0.669400	0.121118
H11	H	0.823400	0.352800	0.743800	0.121118
H12	H	0.782400	0.503400	0.743400	0.121118
H13	H	0.569900	0.152500	0.279300	0.371757
H14	H	0.069800	0.881000	0.112700	0.429953
H15	H	0.150700	0.014500	0.121300	0.429953
H16	H	0.450400	0.871400	0.169400	0.121118
H17	H	0.352800	0.823400	0.243800	0.121118
H18	H	0.503400	0.782400	0.243400	0.121118
H19	H	0.847500	0.430100	0.220700	0.371757
H20	H	0.119000	0.930200	0.387300	0.429953
H21	H	0.985500	0.849300	0.378700	0.429953
H22	H	0.128600	0.549600	0.330600	0.121118
H23	H	0.176600	0.647200	0.256200	0.121118
H24	H	0.217600	0.496600	0.256600	0.121118
Ru1	Ru	0.544690	0.118990	0.503380	1.092350
Ru2	Ru	0.881010	0.455310	0.996620	1.092350
Ru3	Ru	0.455310	0.881010	0.496620	1.092350
Ru4	Ru	0.118990	0.544690	0.003380	1.092350
C1	C	0.501300	0.018700	0.717300	-0.242542
C2	C	0.553300	0.146500	0.769800	-0.274355
C3	C	0.981300	0.498700	0.782700	-0.242542
C4	C	0.853500	0.446700	0.730200	-0.274355
C5	C	0.498700	0.981300	0.282700	-0.242542
C6	C	0.446700	0.853500	0.230200	-0.274355
C7	C	0.018700	0.501300	0.217300	-0.242542
C8	C	0.146500	0.553300	0.269800	-0.274355
O1	O	0.407200	0.168800	0.591200	-0.749614
O2	O	0.305700	0.905100	0.580400	-0.749614
O3	O	0.237000	0.076800	0.698700	-0.933492
O4	O	0.688200	0.101600	0.595900	-0.749614
O5	O	0.584700	0.843300	0.597100	-0.749614
O6	O	0.756200	0.937400	0.722200	-0.933492
O7	O	0.460300	0.918100	0.755600	-0.522077
O8	O	0.931900	0.031700	0.876600	-0.821035
O9	O	0.831200	0.592800	0.908800	-0.749614
O10	O	0.094900	0.694300	0.919600	-0.749614
O11	O	0.923200	0.763000	0.801300	-0.933492
O12	O	0.898400	0.311800	0.904100	-0.749614
O13	O	0.156700	0.415300	0.902900	-0.749614
O14	O	0.062600	0.243800	0.777800	-0.933492
O15	O	0.081900	0.539700	0.744400	-0.522077
O16	O	0.968300	0.068100	0.623400	-0.821035
O17	O	0.592800	0.831200	0.408800	-0.749614
O18	O	0.694300	0.094900	0.419600	-0.749614
O19	O	0.763000	0.923200	0.301300	-0.933492
O20	O	0.311800	0.898400	0.404100	-0.749614
O21	O	0.415300	0.156700	0.402900	-0.749614
O22	O	0.243800	0.062600	0.277800	-0.933492
O23	O	0.539700	0.081900	0.244400	-0.522077
O24	O	0.068100	0.968300	0.123400	-0.821035
O25	O	0.168800	0.407200	0.091200	-0.749614
O26	O	0.905100	0.305700	0.080400	-0.749614
O27	O	0.076800	0.237000	0.198700	-0.933492
O28	O	0.101600	0.688200	0.095900	-0.749614
O29	O	0.843300	0.584700	0.097100	-0.749614
O30	O	0.937400	0.756200	0.222200	-0.933492
O31	O	0.918100	0.460300	0.255600	-0.522077
O32	O	0.031700	0.931900	0.376600	-0.821035
