data_GUJVIR_clean_PM
_symmetry_space_group_name_H-M	'P1'
_cell_length_a	9.248001
_cell_length_b	11.216000
_cell_length_c	11.875000
_cell_angle_alpha	79.639001
_cell_angle_beta	74.735999
_cell_angle_gamma	88.301002
_symmetry_Int_Tables_number 1

loop_
_symmetry_equiv_pos_as_xyz
'x,y,z'

loop_
_atom_site_label
_atom_site_type_symbol
_atom_site_fract_x
_atom_site_fract_y
_atom_site_fract_z
_atom_site_charge
Cd1	Cd	0.000000	0.000000	0.000000	1.084605
Cd2	Cd	0.000000	0.000000	0.500000	0.997962
H1	H	0.643700	0.058100	0.628500	0.069822
H2	H	0.789400	0.108600	0.288800	0.106122
H3	H	0.560500	0.213000	0.231000	0.127572
H4	H	0.411100	0.180800	0.330700	0.127572
H5	H	0.290500	0.364100	0.279300	0.114474
H6	H	0.134100	0.528500	0.270800	0.127572
H7	H	0.231800	0.641200	0.194300	0.127572
H8	H	0.987200	0.706500	0.607800	0.069822
H9	H	0.105600	0.829600	0.270500	0.106122
H10	H	0.434700	0.680000	0.323600	0.114474
H11	H	0.677500	0.379900	0.368400	0.114474
H12	H	0.756000	0.563700	0.418700	0.127572
H13	H	0.646400	0.673300	0.428000	0.127572
H14	H	0.012900	0.696900	0.035800	0.072724
H15	H	0.751100	0.858800	0.267700	0.105663
H16	H	0.356300	0.941900	0.371500	0.069822
H17	H	0.210600	0.891400	0.711200	0.106122
H18	H	0.439500	0.787000	0.769000	0.127572
H19	H	0.588900	0.819200	0.669300	0.127572
H20	H	0.709500	0.635900	0.720700	0.114474
H21	H	0.865900	0.471500	0.729200	0.127572
H22	H	0.768200	0.358800	0.805700	0.127572
H23	H	0.012800	0.293500	0.392200	0.069822
H24	H	0.894400	0.170400	0.729500	0.106122
H25	H	0.565300	0.320000	0.676400	0.114474
H26	H	0.322500	0.620100	0.631600	0.114474
H27	H	0.244000	0.436300	0.581300	0.127572
H28	H	0.353600	0.326700	0.572000	0.127572
H29	H	0.987100	0.303100	0.964200	0.072724
H30	H	0.248900	0.141200	0.732300	0.105663
C1	C	0.648000	0.081100	0.548400	0.270493
C2	C	0.729000	0.107100	0.365300	0.145322
C3	C	0.509000	0.219500	0.312100	-0.091325
C4	C	0.489000	0.351400	0.321000	0.075345
C5	C	0.362500	0.408300	0.297000	-0.184458
C6	C	0.343400	0.530300	0.299300	0.075345
C7	C	0.204300	0.590500	0.272300	-0.091325
C8	C	0.026700	0.710300	0.526700	0.270493
C9	C	0.089300	0.779000	0.344000	0.145322
C10	C	0.448200	0.597500	0.324100	-0.184458
C11	C	0.594200	0.418000	0.349500	-0.184458
C12	C	0.575500	0.542100	0.350000	0.075345
C13	C	0.695100	0.617200	0.377200	-0.091325
C14	C	0.942500	0.710700	0.104000	0.279980
C15	C	0.802300	0.799700	0.227800	0.166595
C16	C	0.352000	0.918900	0.451600	0.270493
C17	C	0.271000	0.892900	0.634700	0.145322
C18	C	0.491000	0.780500	0.687900	-0.091325
C19	C	0.511000	0.648600	0.679000	0.075345
C20	C	0.637500	0.591700	0.703000	-0.184458
C21	C	0.656600	0.469700	0.700700	0.075345
C22	C	0.795700	0.409500	0.727700	-0.091325
C23	C	0.973300	0.289700	0.473300	0.270493
C24	C	0.910700	0.221000	0.656000	0.145322
C25	C	0.551800	0.402500	0.675900	-0.184458
C26	C	0.405800	0.582000	0.650500	-0.184458
C27	C	0.424500	0.457900	0.650000	0.075345
C28	C	0.304900	0.382800	0.622800	-0.091325
C29	C	0.057500	0.289300	0.896000	0.279980
C30	C	0.197700	0.200300	0.772200	0.166595
S1	S	0.845600	0.881100	0.806900	1.676072
S2	S	0.154400	0.118900	0.193100	1.676072
N1	N	0.594700	0.154600	0.392100	0.168211
N2	N	0.539100	0.139000	0.512800	-0.378005
N3	N	0.765000	0.056800	0.464400	-0.430512
N4	N	0.130800	0.665000	0.360400	0.168211
N5	N	0.091600	0.620100	0.480600	-0.378005
N6	N	0.022100	0.811100	0.445300	-0.430512
N7	N	0.788600	0.683300	0.268700	0.167381
N8	N	0.879400	0.622500	0.189200	-0.378777
N9	N	0.899200	0.822200	0.121500	-0.457448
N10	N	0.405300	0.845400	0.607900	0.168211
N11	N	0.460900	0.861000	0.487200	-0.378005
N12	N	0.235000	0.943200	0.535600	-0.430512
N13	N	0.869200	0.335000	0.639600	0.168211
N14	N	0.908400	0.379900	0.519400	-0.378005
N15	N	0.977900	0.188900	0.554700	-0.430512
N16	N	0.211400	0.316700	0.731300	0.167381
N17	N	0.120600	0.377500	0.810800	-0.378777
N18	N	0.100800	0.177800	0.878500	-0.457448
O1	O	0.854800	0.908400	0.682000	-0.780488
O2	O	0.851900	0.751700	0.840100	-0.759565
O3	O	0.968100	0.940300	0.831900	-0.784294
O4	O	0.701300	0.913100	0.875100	-0.759565
O5	O	0.145200	0.091600	0.318000	-0.780488
O6	O	0.148100	0.248300	0.159900	-0.759565
O7	O	0.031900	0.059700	0.168100	-0.784294
O8	O	0.298700	0.086900	0.124900	-0.759565
