data_HAWWIN_clean_PM
_symmetry_space_group_name_H-M	'P1'
_cell_length_a	11.687100
_cell_length_b	17.341300
_cell_length_c	25.851200
_cell_angle_alpha	102.301001
_cell_angle_beta	90.000000
_cell_angle_gamma	90.000000
_symmetry_Int_Tables_number 1

loop_
_symmetry_equiv_pos_as_xyz
'x,y,z'

loop_
_atom_site_label
_atom_site_type_symbol
_atom_site_fract_x
_atom_site_fract_y
_atom_site_fract_z
_atom_site_charge
Nd1	Nd	0.028270	0.486780	0.419030	2.262027
Nd2	Nd	0.492060	0.039280	0.580590	2.230566
Nd3	Nd	0.028270	0.013220	0.080970	2.262027
Nd4	Nd	0.492060	0.460720	0.919410	2.230566
Nd5	Nd	0.971730	0.513220	0.580970	2.262027
Nd6	Nd	0.507940	0.960720	0.419410	2.230566
Nd7	Nd	0.971730	0.986780	0.919030	2.262027
Nd8	Nd	0.507940	0.539280	0.080590	2.230566
H1	H	0.775700	0.249500	0.395300	0.110434
H2	H	0.672200	0.134600	0.411800	0.110846
H3	H	0.028100	0.576500	0.236600	0.110434
H4	H	0.912200	0.580100	0.158700	0.110846
H5	H	0.735000	0.644200	0.573800	0.110434
H6	H	0.628300	0.767100	0.592200	0.110434
H7	H	0.775700	0.250500	0.104700	0.110434
H8	H	0.672200	0.365400	0.088200	0.110846
H9	H	0.028100	0.923500	0.263400	0.110434
H10	H	0.912200	0.919900	0.341300	0.110846
H11	H	0.735000	0.855800	0.926200	0.110434
H12	H	0.628300	0.732900	0.907800	0.110434
H13	H	0.224300	0.750500	0.604700	0.110434
H14	H	0.327800	0.865400	0.588200	0.110846
H15	H	0.971900	0.423500	0.763400	0.110434
H16	H	0.087800	0.419900	0.841300	0.110846
H17	H	0.265000	0.355800	0.426200	0.110434
H18	H	0.371700	0.232900	0.407800	0.110434
H19	H	0.224300	0.749500	0.895300	0.110434
H20	H	0.327800	0.634600	0.911800	0.110846
H21	H	0.971900	0.076500	0.736600	0.110434
H22	H	0.087800	0.080100	0.658700	0.110846
H23	H	0.265000	0.144200	0.073800	0.110434
H24	H	0.371700	0.267100	0.092200	0.110434
C1	C	0.816400	0.282000	0.473100	-0.197093
C2	C	0.769100	0.237500	0.428600	-0.054595
C3	C	0.709000	0.171200	0.438100	-0.063848
C4	C	0.710900	0.167000	0.489900	-0.196014
C5	C	0.882600	0.356800	0.480400	0.789486
C6	C	0.655100	0.110400	0.517600	0.751830
C7	C	0.905600	0.511500	0.263700	-0.197093
C8	C	0.956700	0.552600	0.230300	-0.054595
C9	C	0.889800	0.554700	0.185300	-0.066092
C10	C	0.789800	0.516100	0.185100	-0.152727
C11	C	0.949600	0.499990	0.315090	0.789486
C12	C	0.696000	0.511900	0.146200	0.619365
C13	C	0.769000	0.658850	0.499750	-0.210024
C14	C	0.725300	0.676100	0.549400	-0.064868
C15	C	0.664200	0.747100	0.560000	-0.056165
C16	C	0.662500	0.783700	0.518800	-0.190948
C17	C	0.840500	0.591300	0.474800	0.770323
C18	C	0.609300	0.860100	0.514800	0.781244
C19	C	0.816400	0.218000	0.026900	-0.197093
C20	C	0.769100	0.262500	0.071400	-0.054595
C21	C	0.709000	0.328800	0.061900	-0.063848
C22	C	0.710900	0.333000	0.010100	-0.196014
C23	C	0.882600	0.143200	0.019600	0.789486
C24	C	0.655100	0.389600	0.982400	0.751830
C25	C	0.905600	0.988500	0.236300	-0.197093
C26	C	0.956700	0.947400	0.269700	-0.054595
C27	C	0.889800	0.945300	0.314700	-0.066092
C28	C	0.789800	0.983900	0.314900	-0.152727
C29	C	0.949600	0.000010	0.184910	0.789486
C30	C	0.696000	0.988100	0.353800	0.619365
C31	C	0.769000	0.841150	0.000250	-0.210024
C32	C	0.725300	0.823900	0.950600	-0.064868
C33	C	0.664200	0.752900	0.940000	-0.056165
C34	C	0.662500	0.716300	0.981200	-0.190948
C35	C	0.840500	0.908700	0.025200	0.770323
C36	C	0.609300	0.639900	0.985200	0.781244
C37	C	0.183600	0.718000	0.526900	-0.197093
C38	C	0.230900	0.762500	0.571400	-0.054595
C39	C	0.291000	0.828800	0.561900	-0.063848
C40	C	0.289100	0.833000	0.510100	-0.196014
C41	C	0.117400	0.643200	0.519600	0.789486
C42	C	0.344900	0.889600	0.482400	0.751830
C43	C	0.094400	0.488500	0.736300	-0.197093
C44	C	0.043300	0.447400	0.769700	-0.054595
C45	C	0.110200	0.445300	0.814700	-0.066092
C46	C	0.210200	0.483900	0.814900	-0.152727
C47	C	0.050400	0.500010	0.684910	0.789486
C48	C	0.304000	0.488100	0.853800	0.619365
C49	C	0.231000	0.341150	0.500250	-0.210024
C50	C	0.274700	0.323900	0.450600	-0.064868
C51	C	0.335800	0.252900	0.440000	-0.056165
C52	C	0.337500	0.216300	0.481200	-0.190948
C53	C	0.159500	0.408700	0.525200	0.770323
C54	C	0.390700	0.139900	0.485200	0.781244
C55	C	0.183600	0.782000	0.973100	-0.197093
C56	C	0.230900	0.737500	0.928600	-0.054595
C57	C	0.291000	0.671200	0.938100	-0.063848
C58	C	0.289100	0.667000	0.989900	-0.196014
C59	C	0.117400	0.856800	0.980400	0.789486
C60	C	0.344900	0.610400	0.017600	0.751830
C61	C	0.094400	0.011500	0.763700	-0.197093
C62	C	0.043300	0.052600	0.730300	-0.054595
C63	C	0.110200	0.054700	0.685300	-0.066092
C64	C	0.210200	0.016100	0.685100	-0.152727
C65	C	0.050400	0.999990	0.815090	0.789486
C66	C	0.304000	0.011900	0.646200	0.619365
C67	C	0.231000	0.158850	0.999750	-0.210024
C68	C	0.274700	0.176100	0.049400	-0.064868
C69	C	0.335800	0.247100	0.060000	-0.056165
C70	C	0.337500	0.283700	0.018800	-0.190948
C71	C	0.159500	0.091300	0.974800	0.770323
C72	C	0.390700	0.360100	0.014800	0.781244
S1	S	0.786020	0.244070	0.527690	0.177315
S2	S	0.733680	0.729170	0.465250	0.160989
S3	S	0.775380	0.474430	0.239490	0.173797
S4	S	0.786020	0.255930	0.972310	0.177315
S5	S	0.733680	0.770830	0.034750	0.160989
S6	S	0.775380	0.025570	0.260510	0.173797
S7	S	0.213980	0.755930	0.472310	0.177315
S8	S	0.266320	0.270830	0.534750	0.160989
S9	S	0.224620	0.525570	0.760510	0.173797
S10	S	0.213980	0.744070	0.027690	0.177315
S11	S	0.266320	0.229170	0.965250	0.160989
S12	S	0.224620	0.974430	0.739490	0.173797
O1	O	0.904900	0.382220	0.439320	-0.733861
O2	O	0.909600	0.387750	0.526750	-0.733861
O3	O	0.648700	0.129760	0.566560	-0.630210
O4	O	0.612400	0.046670	0.491870	-0.853941
O5	O	0.033400	0.539510	0.335510	-0.733861
O6	O	0.901100	0.449940	0.336640	-0.733861
O7	O	0.603500	0.480250	0.152650	-0.647329
O8	O	0.713700	0.543630	0.107030	-0.647329
O9	O	0.880200	0.545750	0.503450	-0.873006
O10	O	0.863000	0.580310	0.426810	-0.668949
O11	O	0.598100	0.872400	0.469000	-0.704793
O12	O	0.581200	0.905870	0.557170	-0.704793
O13	O	0.904900	0.117780	0.060680	-0.733861
O14	O	0.909600	0.112250	0.973250	-0.733861
O15	O	0.648700	0.370240	0.933440	-0.630210
O16	O	0.612400	0.453330	0.008130	-0.853941
O17	O	0.033400	0.960490	0.164490	-0.733861
O18	O	0.901100	0.050060	0.163360	-0.733861
O19	O	0.603500	0.019750	0.347350	-0.647329
O20	O	0.713700	0.956370	0.392970	-0.647329
O21	O	0.880200	0.954250	0.996550	-0.873006
O22	O	0.863000	0.919690	0.073190	-0.668949
O23	O	0.598100	0.627600	0.031000	-0.704793
O24	O	0.581200	0.594130	0.942830	-0.704793
O25	O	0.095100	0.617780	0.560680	-0.733861
O26	O	0.090400	0.612250	0.473250	-0.733861
O27	O	0.351300	0.870240	0.433440	-0.630210
O28	O	0.387600	0.953330	0.508130	-0.853941
O29	O	0.966600	0.460490	0.664490	-0.733861
O30	O	0.098900	0.550060	0.663360	-0.733861
O31	O	0.396500	0.519750	0.847350	-0.647329
O32	O	0.286300	0.456370	0.892970	-0.647329
O33	O	0.119800	0.454250	0.496550	-0.873006
O34	O	0.137000	0.419690	0.573190	-0.668949
O35	O	0.401900	0.127600	0.531000	-0.704793
O36	O	0.418800	0.094130	0.442830	-0.704793
O37	O	0.095100	0.882220	0.939320	-0.733861
O38	O	0.090400	0.887750	0.026750	-0.733861
O39	O	0.351300	0.629760	0.066560	-0.630210
O40	O	0.387600	0.546670	0.991870	-0.853941
O41	O	0.966600	0.039510	0.835510	-0.733861
O42	O	0.098900	0.949940	0.836640	-0.733861
O43	O	0.396500	0.980250	0.652650	-0.647329
O44	O	0.286300	0.043630	0.607030	-0.647329
O45	O	0.119800	0.045750	0.003450	-0.873006
O46	O	0.137000	0.080310	0.926810	-0.668949
O47	O	0.401900	0.372400	0.969000	-0.704793
O48	O	0.418800	0.405870	0.057170	-0.704793
