data_HEBTAL_clean_PM
_symmetry_space_group_name_H-M	'P1'
_cell_length_a	7.335200
_cell_length_b	11.320000
_cell_length_c	17.676000
_cell_angle_alpha	90.000000
_cell_angle_beta	90.120002
_cell_angle_gamma	90.000000
_symmetry_Int_Tables_number 1

loop_
_symmetry_equiv_pos_as_xyz
'x,y,z'

loop_
_atom_site_label
_atom_site_type_symbol
_atom_site_fract_x
_atom_site_fract_y
_atom_site_fract_z
_atom_site_charge
Co1	Co	0.000000	0.500000	0.000000	1.115630
Co2	Co	0.000000	0.000000	0.500000	1.115630
Co3	Co	0.500000	0.500000	0.000000	1.115630
Co4	Co	0.500000	0.000000	0.500000	1.115630
H1	H	0.709400	0.475300	0.732900	0.101799
H2	H	0.924800	0.699500	0.582300	0.106530
H3	H	0.961000	0.492200	0.808500	0.106530
H4	H	0.692000	0.583200	0.617700	0.101799
H5	H	0.506000	0.795100	0.677100	0.102386
H6	H	0.521000	0.690100	0.792000	0.102386
H7	H	0.290600	0.975300	0.767100	0.101799
H8	H	0.075200	0.199500	0.917700	0.106530
H9	H	0.039000	0.992200	0.691500	0.106530
H10	H	0.308000	0.083200	0.882300	0.101799
H11	H	0.494000	0.295100	0.822900	0.102386
H12	H	0.479000	0.190100	0.708000	0.102386
H13	H	0.290600	0.524700	0.267100	0.101799
H14	H	0.075200	0.300500	0.417700	0.106530
H15	H	0.039000	0.507800	0.191500	0.106530
H16	H	0.308000	0.416800	0.382300	0.101799
H17	H	0.494000	0.204900	0.322900	0.102386
H18	H	0.479000	0.309900	0.208000	0.102386
H19	H	0.709400	0.024700	0.232900	0.101799
H20	H	0.924800	0.800500	0.082300	0.106530
H21	H	0.961000	0.007800	0.308500	0.106530
H22	H	0.692000	0.916800	0.117700	0.101799
H23	H	0.506000	0.704900	0.177100	0.102386
H24	H	0.521000	0.809900	0.292000	0.102386
C1	C	0.263330	0.621970	0.789130	-0.138950
C2	C	0.400600	0.745850	0.693270	-0.072182
C3	C	0.092590	0.673390	0.673460	0.054824
C4	C	0.244340	0.744770	0.650720	-0.138950
C5	C	0.101960	0.610310	0.743550	0.054824
C6	C	0.273490	0.574570	0.869230	0.706371
C7	C	0.233940	0.828530	0.584140	0.706371
C8	C	0.409300	0.684170	0.762540	-0.072182
C9	C	0.804900	0.524320	0.718420	-0.071672
C10	C	0.933600	0.659040	0.627960	-0.117652
C11	C	0.954900	0.535000	0.763650	-0.117652
C12	C	0.794300	0.587360	0.649850	-0.071672
C13	C	0.736670	0.121970	0.710870	-0.138950
C14	C	0.599400	0.245850	0.806730	-0.072182
C15	C	0.907410	0.173390	0.826540	0.054824
C16	C	0.755660	0.244770	0.849280	-0.138950
C17	C	0.898040	0.110310	0.756450	0.054824
C18	C	0.726510	0.074570	0.630770	0.706371
C19	C	0.766060	0.328530	0.915860	0.706371
C20	C	0.590700	0.184170	0.737460	-0.072182
C21	C	0.195100	0.024320	0.781580	-0.071672
C22	C	0.066400	0.159040	0.872040	-0.117652
C23	C	0.045100	0.035000	0.736350	-0.117652
C24	C	0.205700	0.087360	0.850150	-0.071672
C25	C	0.736670	0.378030	0.210870	-0.138950
C26	C	0.599400	0.254150	0.306730	-0.072182
C27	C	0.907410	0.326610	0.326540	0.054824
C28	C	0.755660	0.255230	0.349280	-0.138950
C29	C	0.898040	0.389690	0.256450	0.054824
C30	C	0.726510	0.425430	0.130770	0.706371
C31	C	0.766060	0.171470	0.415860	0.706371
C32	C	0.590700	0.315830	0.237460	-0.072182
C33	C	0.195100	0.475680	0.281580	-0.071672
C34	C	0.066400	0.340960	0.372040	-0.117652
C35	C	0.045100	0.465000	0.236350	-0.117652
C36	C	0.205700	0.412640	0.350150	-0.071672
C37	C	0.263330	0.878030	0.289130	-0.138950
C38	C	0.400600	0.754150	0.193270	-0.072182
C39	C	0.092590	0.826610	0.173460	0.054824
C40	C	0.244340	0.755230	0.150720	-0.138950
C41	C	0.101960	0.889690	0.243550	0.054824
C42	C	0.273490	0.925430	0.369230	0.706371
C43	C	0.233940	0.671470	0.084140	0.706371
C44	C	0.409300	0.815830	0.262540	-0.072182
C45	C	0.804900	0.975680	0.218420	-0.071672
C46	C	0.933600	0.840960	0.127960	-0.117652
C47	C	0.954900	0.965000	0.263650	-0.117652
C48	C	0.794300	0.912640	0.149850	-0.071672
O1	O	0.130340	0.580550	0.908030	-0.614634
O2	O	0.377800	0.847500	0.547480	-0.614634
O3	O	0.082300	0.876010	0.572900	-0.614634
O4	O	0.425770	0.538640	0.891760	-0.614634
O5	O	0.869660	0.080550	0.591970	-0.614634
O6	O	0.622200	0.347500	0.952520	-0.614634
O7	O	0.917700	0.376010	0.927100	-0.614634
O8	O	0.574230	0.038640	0.608240	-0.614634
O9	O	0.869660	0.419450	0.091970	-0.614634
O10	O	0.622200	0.152500	0.452520	-0.614634
O11	O	0.917700	0.123990	0.427100	-0.614634
O12	O	0.574230	0.461360	0.108240	-0.614634
O13	O	0.130340	0.919450	0.408030	-0.614634
O14	O	0.377800	0.652500	0.047480	-0.614634
O15	O	0.082300	0.623990	0.072900	-0.614634
O16	O	0.425770	0.961360	0.391760	-0.614634
