data_HIDMEO_clean_PM
_symmetry_space_group_name_H-M	'P1'
_cell_length_a	10.230400
_cell_length_b	10.529300
_cell_length_c	13.085300
_cell_angle_alpha	100.835999
_cell_angle_beta	90.735999
_cell_angle_gamma	113.420002
_symmetry_Int_Tables_number 1

loop_
_symmetry_equiv_pos_as_xyz
'x,y,z'

loop_
_atom_site_label
_atom_site_type_symbol
_atom_site_fract_x
_atom_site_fract_y
_atom_site_fract_z
_atom_site_charge
Zn1	Zn	0.341900	0.195240	0.438930	0.925307
Zn2	Zn	0.658100	0.804760	0.561070	0.925307
Zn3	Zn	0.500000	0.000000	0.500000	1.060790
H1	H	0.579500	0.548900	0.717300	0.103468
H2	H	0.812600	0.321600	0.718100	0.103468
H3	H	0.714600	0.701700	0.870200	0.108640
H4	H	0.357000	0.475600	0.552800	0.087739
H5	H	0.738400	0.644500	0.064700	0.108448
H6	H	0.226000	0.904900	0.115200	0.108448
H7	H	0.131700	0.940500	0.873300	0.108640
H8	H	0.300000	0.979600	0.754500	0.103468
H9	H	0.380400	0.659400	0.809200	0.103468
H10	H	0.221400	0.628300	0.937800	0.108640
H11	H	0.218900	0.602100	0.582300	0.133254
H12	H	0.903100	0.281500	0.399700	0.133254
H13	H	0.052800	0.164200	0.371700	0.087739
H14	H	0.940600	0.468900	0.869000	0.108640
H15	H	0.652300	0.672700	0.308600	0.408510
H16	H	0.420500	0.451100	0.282700	0.103468
H17	H	0.187400	0.678400	0.281900	0.103468
H18	H	0.285400	0.298300	0.129800	0.108640
H19	H	0.643000	0.524400	0.447200	0.087739
H20	H	0.261600	0.355500	0.935300	0.108448
H21	H	0.774000	0.095100	0.884800	0.108448
H22	H	0.868300	0.059500	0.126700	0.108640
H23	H	0.700000	0.020400	0.245500	0.103468
H24	H	0.619600	0.340600	0.190800	0.103468
H25	H	0.778600	0.371700	0.062200	0.108640
H26	H	0.781100	0.397900	0.417700	0.133254
H27	H	0.096900	0.718500	0.600300	0.133254
H28	H	0.947200	0.835800	0.628300	0.087739
H29	H	0.059400	0.531100	0.131000	0.108640
H30	H	0.347700	0.327300	0.691400	0.408510
C1	C	0.580200	0.306900	0.614200	0.703797
C2	C	0.673100	0.410700	0.707000	-0.142364
C3	C	0.649900	0.530400	0.749200	-0.024242
C4	C	0.788400	0.394900	0.750100	-0.024242
C5	C	0.733300	0.623900	0.840600	-0.140125
C6	C	0.843600	0.601300	0.887300	0.056706
C7	C	0.263500	0.435300	0.521500	0.188444
C8	C	0.918500	0.690200	0.989600	0.009163
C9	C	0.837200	0.695000	0.074900	-0.091703
C10	C	0.901000	0.773600	0.174700	-0.077891
C11	C	0.805000	0.781300	0.258000	0.632863
C12	C	0.047700	0.852900	0.191300	-0.054130
C13	C	0.123300	0.933000	0.296600	0.649709
C14	C	0.127700	0.851200	0.105900	-0.096709
C15	C	0.064000	0.770900	0.006800	0.009163
C16	C	0.456100	0.842600	0.680800	0.703797
C17	C	0.183400	0.884500	0.862600	-0.140125
C18	C	0.282200	0.905800	0.789100	-0.024242
C19	C	0.353900	0.819900	0.766500	-0.142364
C20	C	0.331300	0.717600	0.822400	-0.024242
C21	C	0.235200	0.698100	0.899700	-0.140125
C22	C	0.161200	0.784100	0.918600	0.056706
C23	C	0.181300	0.512800	0.538400	-0.190348
C24	C	0.046500	0.459800	0.491700	0.098485
C25	C	0.996700	0.324900	0.431000	-0.190348
C26	C	0.086200	0.253000	0.416100	0.188444
C27	C	0.867600	0.486100	0.839500	-0.140125
C28	C	0.419800	0.693100	0.385800	0.703797
C29	C	0.326900	0.589300	0.293000	-0.142364
C30	C	0.350100	0.469600	0.250800	-0.024242
C31	C	0.211600	0.605100	0.249900	-0.024242
C32	C	0.266700	0.376100	0.159400	-0.140125
C33	C	0.156400	0.398700	0.112700	0.056706
C34	C	0.736500	0.564700	0.478500	0.188444
C35	C	0.081500	0.309800	0.010400	0.009163
C36	C	0.162800	0.305000	0.925100	-0.091703
C37	C	0.099000	0.226400	0.825300	-0.077891
C38	C	0.195000	0.218700	0.742000	0.632863
C39	C	0.952300	0.147100	0.808700	-0.054130
C40	C	0.876700	0.067000	0.703400	0.649709
C41	C	0.872300	0.148800	0.894100	-0.096709
C42	C	0.936000	0.229100	0.993200	0.009163
C43	C	0.543900	0.157400	0.319200	0.703797
C44	C	0.816600	0.115500	0.137400	-0.140125
C45	C	0.717800	0.094200	0.210900	-0.024242
C46	C	0.646100	0.180100	0.233500	-0.142364
C47	C	0.668700	0.282400	0.177600	-0.024242
C48	C	0.764800	0.301900	0.100300	-0.140125
C49	C	0.838800	0.215900	0.081400	0.056706
C50	C	0.818700	0.487200	0.461600	-0.190348
C51	C	0.953500	0.540200	0.508300	0.098485
C52	C	0.003300	0.675100	0.569000	-0.190348
C53	C	0.913800	0.747000	0.583900	0.188444
C54	C	0.132400	0.513900	0.160500	-0.140125
N1	N	0.215600	0.307500	0.463300	-0.334976
N2	N	0.784400	0.692500	0.536700	-0.334976
O1	O	0.828800	0.889200	0.322500	-0.565731
O2	O	0.696300	0.662500	0.258000	-0.519414
O3	O	0.207700	0.058700	0.305400	-0.607084
O4	O	0.100300	0.862200	0.368500	-0.579715
O5	O	0.466600	0.315700	0.583700	-0.597248
O6	O	0.618500	0.209700	0.571400	-0.612033
O7	O	0.503700	0.748700	0.651000	-0.597248
O8	O	0.484800	0.952400	0.645900	-0.612033
O9	O	0.171200	0.110800	0.677500	-0.565731
O10	O	0.303700	0.337500	0.742000	-0.519414
O11	O	0.792300	0.941300	0.694600	-0.607084
O12	O	0.899700	0.137800	0.631500	-0.579715
O13	O	0.533400	0.684300	0.416300	-0.597248
O14	O	0.381500	0.790300	0.428600	-0.612033
O15	O	0.496300	0.251300	0.349000	-0.597248
O16	O	0.515200	0.047600	0.354100	-0.612033
