data_HIHJUF_PM
_symmetry_space_group_name_H-M	'P1'
_cell_length_a	11.873900
_cell_length_b	11.873900
_cell_length_c	25.494000
_cell_angle_alpha	90.000000
_cell_angle_beta	90.000000
_cell_angle_gamma	120.000000
_symmetry_Int_Tables_number 1

loop_
_symmetry_equiv_pos_as_xyz
'x,y,z'

loop_
_atom_site_label
_atom_site_type_symbol
_atom_site_fract_x
_atom_site_fract_y
_atom_site_fract_z
_atom_site_charge
Zn1	Zn	0.413150	0.426940	0.062710	0.853230
Zn2	Zn	0.573060	0.986210	0.062710	0.853230
Zn3	Zn	0.013790	0.586850	0.062710	0.853230
Zn4	Zn	0.573060	0.586850	0.437290	0.853230
Zn5	Zn	0.413150	0.986210	0.437290	0.853230
Zn6	Zn	0.013790	0.426940	0.437290	0.853230
Zn7	Zn	0.586850	0.573060	0.937290	0.853230
Zn8	Zn	0.426940	0.013790	0.937290	0.853230
Zn9	Zn	0.986210	0.413150	0.937290	0.853230
Zn10	Zn	0.426940	0.413150	0.562710	0.853230
Zn11	Zn	0.586850	0.013790	0.562710	0.853230
Zn12	Zn	0.986210	0.573060	0.562710	0.853230
H1	H	0.398300	0.390600	0.260700	0.100472
H2	H	0.609400	0.007700	0.260700	0.100472
H3	H	0.992300	0.601700	0.260700	0.100472
H4	H	0.609400	0.601700	0.239300	0.100472
H5	H	0.398300	0.007700	0.239300	0.100472
H6	H	0.992300	0.390600	0.239300	0.100472
H7	H	0.601700	0.609400	0.739300	0.100472
H8	H	0.390600	0.992300	0.739300	0.100472
H9	H	0.007700	0.398300	0.739300	0.100472
H10	H	0.390600	0.398300	0.760700	0.100472
H11	H	0.601700	0.992300	0.760700	0.100472
H12	H	0.007700	0.609400	0.760700	0.100472
H13	H	0.224700	0.393500	0.971900	0.088414
H14	H	0.606500	0.831200	0.971900	0.088414
H15	H	0.168800	0.775300	0.971900	0.088414
H16	H	0.606500	0.775300	0.528100	0.088414
H17	H	0.224700	0.831200	0.528100	0.088414
H18	H	0.168800	0.393500	0.528100	0.088414
H19	H	0.775300	0.606500	0.028100	0.088414
H20	H	0.393500	0.168800	0.028100	0.088414
H21	H	0.831200	0.224700	0.028100	0.088414
H22	H	0.393500	0.224700	0.471900	0.088414
H23	H	0.775300	0.168800	0.471900	0.088414
H24	H	0.831200	0.606500	0.471900	0.088414
H25	H	0.395400	0.122500	0.166700	0.100472
H26	H	0.877500	0.272900	0.166700	0.100472
H27	H	0.727100	0.604600	0.166700	0.100472
H28	H	0.877500	0.604600	0.333300	0.100472
H29	H	0.395400	0.272900	0.333300	0.100472
H30	H	0.727100	0.122500	0.333300	0.100472
H31	H	0.604600	0.877500	0.833300	0.100472
H32	H	0.122500	0.727100	0.833300	0.100472
H33	H	0.272900	0.395400	0.833300	0.100472
H34	H	0.122500	0.395400	0.666700	0.100472
H35	H	0.604600	0.727100	0.666700	0.100472
H36	H	0.272900	0.877500	0.666700	0.100472
H37	H	0.244000	0.466000	0.146000	0.335293
H38	H	0.534000	0.778000	0.146000	0.335293
H39	H	0.222000	0.756000	0.146000	0.335293
H40	H	0.534000	0.756000	0.354000	0.335293
H41	H	0.244000	0.778000	0.354000	0.335293
H42	H	0.222000	0.466000	0.354000	0.335293
H43	H	0.756000	0.534000	0.854000	0.335293
H44	H	0.466000	0.222000	0.854000	0.335293
H45	H	0.778000	0.244000	0.854000	0.335293
H46	H	0.466000	0.244000	0.646000	0.335293
H47	H	0.756000	0.222000	0.646000	0.335293
H48	H	0.778000	0.534000	0.646000	0.335293
H49	H	0.131000	0.497000	0.154000	0.335293
H50	H	0.503000	0.634000	0.154000	0.335293
H51	H	0.366000	0.869000	0.154000	0.335293
H52	H	0.503000	0.869000	0.346000	0.335293
H53	H	0.131000	0.634000	0.346000	0.335293
H54	H	0.366000	0.497000	0.346000	0.335293
H55	H	0.869000	0.503000	0.846000	0.335293
H56	H	0.497000	0.366000	0.846000	0.335293
H57	H	0.634000	0.131000	0.846000	0.335293
H58	H	0.497000	0.131000	0.654000	0.335293
H59	H	0.869000	0.366000	0.654000	0.335293
H60	H	0.634000	0.503000	0.654000	0.335293
C1	C	0.407100	0.348900	0.159900	0.648371
C2	C	0.651100	0.058200	0.159900	0.648371
C3	C	0.941800	0.592900	0.159900	0.648371
C4	C	0.651100	0.592900	0.340100	0.648371
C5	C	0.407100	0.058200	0.340100	0.648371
C6	C	0.941800	0.348900	0.340100	0.648371
C7	C	0.592900	0.651100	0.840100	0.648371
C8	C	0.348900	0.941800	0.840100	0.648371
C9	C	0.058200	0.407100	0.840100	0.648371
C10	C	0.348900	0.407100	0.659900	0.648371
C11	C	0.592900	0.941800	0.659900	0.648371
C12	C	0.058200	0.651100	0.659900	0.648371
C13	C	0.402600	0.269600	0.206000	-0.122648
C14	C	0.730400	0.133000	0.206000	-0.122648
C15	C	0.867000	0.597400	0.206000	-0.122648
C16	C	0.730400	0.597400	0.294000	-0.122648
C17	C	0.402600	0.133000	0.294000	-0.122648
C18	C	0.867000	0.269600	0.294000	-0.122648
C19	C	0.597400	0.730400	0.794000	-0.122648
C20	C	0.269600	0.867000	0.794000	-0.122648
C21	C	0.133000	0.402600	0.794000	-0.122648
C22	C	0.269600	0.402600	0.706000	-0.122648
C23	C	0.597400	0.867000	0.706000	-0.122648
C24	C	0.133000	0.730400	0.706000	-0.122648
C25	C	0.399700	0.313500	0.256300	-0.071456
C26	C	0.686500	0.086200	0.256300	-0.071456
C27	C	0.913800	0.600300	0.256300	-0.071456
C28	C	0.686500	0.600300	0.243700	-0.071456
C29	C	0.399700	0.086200	0.243700	-0.071456
C30	C	0.913800	0.313500	0.243700	-0.071456
C31	C	0.600300	0.686500	0.743700	-0.071456
C32	C	0.313500	0.913800	0.743700	-0.071456
C33	C	0.086200	0.399700	0.743700	-0.071456
C34	C	0.313500	0.399700	0.756300	-0.071456
C35	C	0.600300	0.913800	0.756300	-0.071456
C36	C	0.086200	0.686500	0.756300	-0.071456
C37	C	0.165500	0.447600	0.079900	0.660202
C38	C	0.552400	0.717900	0.079900	0.660202
C39	C	0.282100	0.834500	0.079900	0.660202
C40	C	0.552400	0.834500	0.420100	0.660202
C41	C	0.165500	0.717900	0.420100	0.660202
C42	C	0.282100	0.447600	0.420100	0.660202
C43	C	0.834500	0.552400	0.920100	0.660202
C44	C	0.447600	0.282100	0.920100	0.660202
C45	C	0.717900	0.165500	0.920100	0.660202
C46	C	0.447600	0.165500	0.579900	0.660202
C47	C	0.834500	0.282100	0.579900	0.660202
C48	C	0.717900	0.552400	0.579900	0.660202
C49	C	0.192900	0.413000	0.001800	0.280937
C50	C	0.587000	0.779900	0.001800	0.280937
C51	C	0.220100	0.807100	0.001800	0.280937
C52	C	0.587000	0.807100	0.498200	0.280937
C53	C	0.192900	0.779900	0.498200	0.280937
C54	C	0.220100	0.413000	0.498200	0.280937
C55	C	0.807100	0.587000	0.998200	0.280937
C56	C	0.413000	0.220100	0.998200	0.280937
C57	C	0.779900	0.192900	0.998200	0.280937
C58	C	0.413000	0.192900	0.501800	0.280937
C59	C	0.807100	0.220100	0.501800	0.280937
C60	C	0.779900	0.587000	0.501800	0.280937
C61	C	0.398700	0.155300	0.200200	-0.071456
C62	C	0.844700	0.243400	0.200200	-0.071456
C63	C	0.756600	0.601300	0.200200	-0.071456
C64	C	0.844700	0.601300	0.299800	-0.071456
C65	C	0.398700	0.243400	0.299800	-0.071456
C66	C	0.756600	0.155300	0.299800	-0.071456
C67	C	0.601300	0.844700	0.799800	-0.071456
C68	C	0.155300	0.756600	0.799800	-0.071456
C69	C	0.243400	0.398700	0.799800	-0.071456
C70	C	0.155300	0.398700	0.700200	-0.071456
C71	C	0.601300	0.756600	0.700200	-0.071456
C72	C	0.243400	0.844700	0.700200	-0.071456
N1	N	0.076400	0.460100	0.053100	-0.401218
N2	N	0.539900	0.616300	0.053100	-0.401218
N3	N	0.383700	0.923600	0.053100	-0.401218
N4	N	0.539900	0.923600	0.446900	-0.401218
N5	N	0.076400	0.616300	0.446900	-0.401218
N6	N	0.383700	0.460100	0.446900	-0.401218
N7	N	0.923600	0.539900	0.946900	-0.401218
N8	N	0.460100	0.383700	0.946900	-0.401218
N9	N	0.616300	0.076400	0.946900	-0.401218
N10	N	0.460100	0.076400	0.553100	-0.401218
N11	N	0.923600	0.383700	0.553100	-0.401218
N12	N	0.616300	0.539900	0.553100	-0.401218
N13	N	0.242300	0.419500	0.050400	-0.534405
N14	N	0.580500	0.822800	0.050400	-0.534405
N15	N	0.177200	0.757700	0.050400	-0.534405
N16	N	0.580500	0.757700	0.449600	-0.534405
N17	N	0.242300	0.822800	0.449600	-0.534405
N18	N	0.177200	0.419500	0.449600	-0.534405
N19	N	0.757700	0.580500	0.949600	-0.534405
N20	N	0.419500	0.177200	0.949600	-0.534405
N21	N	0.822800	0.242300	0.949600	-0.534405
N22	N	0.419500	0.242300	0.550400	-0.534405
N23	N	0.757700	0.177200	0.550400	-0.534405
N24	N	0.822800	0.580500	0.550400	-0.534405
N25	N	0.176600	0.460500	0.133100	-0.726625
N26	N	0.539500	0.716100	0.133100	-0.726625
N27	N	0.283900	0.823400	0.133100	-0.726625
N28	N	0.539500	0.823400	0.366900	-0.726625
N29	N	0.176600	0.716100	0.366900	-0.726625
N30	N	0.283900	0.460500	0.366900	-0.726625
N31	N	0.823400	0.539500	0.866900	-0.726625
N32	N	0.460500	0.283900	0.866900	-0.726625
N33	N	0.716100	0.176600	0.866900	-0.726625
N34	N	0.460500	0.176600	0.633100	-0.726625
N35	N	0.823400	0.283900	0.633100	-0.726625
N36	N	0.716100	0.539500	0.633100	-0.726625
N37	N	0.096700	0.436600	0.000700	-0.264486
N38	N	0.563400	0.660100	0.000700	-0.264486
N39	N	0.339900	0.903300	0.000700	-0.264486
N40	N	0.563400	0.903300	0.499300	-0.264486
N41	N	0.096700	0.660100	0.499300	-0.264486
N42	N	0.339900	0.436600	0.499300	-0.264486
N43	N	0.903300	0.563400	0.999300	-0.264486
N44	N	0.436600	0.339900	0.999300	-0.264486
N45	N	0.660100	0.096700	0.999300	-0.264486
N46	N	0.436600	0.096700	0.500700	-0.264486
N47	N	0.903300	0.339900	0.500700	-0.264486
N48	N	0.660100	0.563400	0.500700	-0.264486
O1	O	0.412700	0.307300	0.114400	-0.613579
O2	O	0.692700	0.105400	0.114400	-0.613579
O3	O	0.894600	0.587300	0.114400	-0.613579
O4	O	0.692700	0.587300	0.385600	-0.613579
O5	O	0.412700	0.105400	0.385600	-0.613579
O6	O	0.894600	0.307300	0.385600	-0.613579
O7	O	0.587300	0.692700	0.885600	-0.613579
O8	O	0.307300	0.894600	0.885600	-0.613579
O9	O	0.105400	0.412700	0.885600	-0.613579
O10	O	0.307300	0.412700	0.614400	-0.613579
O11	O	0.587300	0.894600	0.614400	-0.613579
O12	O	0.105400	0.692700	0.614400	-0.613579
O13	O	0.403100	0.450400	0.165800	-0.596810
O14	O	0.549600	0.952700	0.165800	-0.596810
O15	O	0.047300	0.596900	0.165800	-0.596810
O16	O	0.549600	0.596900	0.334200	-0.596810
O17	O	0.403100	0.952700	0.334200	-0.596810
O18	O	0.047300	0.450400	0.334200	-0.596810
O19	O	0.596900	0.549600	0.834200	-0.596810
O20	O	0.450400	0.047300	0.834200	-0.596810
O21	O	0.952700	0.403100	0.834200	-0.596810
O22	O	0.450400	0.403100	0.665800	-0.596810
O23	O	0.596900	0.047300	0.665800	-0.596810
O24	O	0.952700	0.549600	0.665800	-0.596810
