data_HOMZEP_clean_PM
_symmetry_space_group_name_H-M	'P1'
_cell_length_a	14.566500
_cell_length_b	14.566500
_cell_length_c	31.683500
_cell_angle_alpha	90.000000
_cell_angle_beta	90.000000
_cell_angle_gamma	120.000000
_symmetry_Int_Tables_number 1

loop_
_symmetry_equiv_pos_as_xyz
'x,y,z'

loop_
_atom_site_label
_atom_site_type_symbol
_atom_site_fract_x
_atom_site_fract_y
_atom_site_fract_z
_atom_site_charge
Ga1	Ga	0.925680	0.074320	0.250000	1.587076
Ga2	Ga	0.148640	0.074320	0.250000	1.587076
Ga3	Ga	0.925680	0.851360	0.250000	1.587076
Ga4	Ga	0.074320	0.925680	0.750000	1.587076
Ga5	Ga	0.851360	0.925680	0.750000	1.587076
Ga6	Ga	0.074320	0.148640	0.750000	1.587076
Ga7	Ga	0.583250	0.166500	0.415090	1.585349
Ga8	Ga	0.583250	0.416740	0.415090	1.585349
Ga9	Ga	0.833490	0.416740	0.415090	1.585349
Ga10	Ga	0.416750	0.833500	0.915090	1.585349
Ga11	Ga	0.416750	0.583260	0.915090	1.585349
Ga12	Ga	0.166510	0.583260	0.915090	1.585349
Ga13	Ga	0.416750	0.833500	0.584910	1.585349
Ga14	Ga	0.166510	0.583260	0.584910	1.585349
Ga15	Ga	0.416750	0.583260	0.584910	1.585349
Ga16	Ga	0.583250	0.166500	0.084910	1.585349
Ga17	Ga	0.833490	0.416740	0.084910	1.585349
Ga18	Ga	0.583250	0.416740	0.084910	1.585349
Ga19	Ga	0.500000	0.000000	0.500000	1.556049
Ga20	Ga	0.500000	0.500000	0.500000	1.556049
Ga21	Ga	0.000000	0.500000	0.500000	1.556049
Ga22	Ga	0.500000	0.000000	0.000000	1.556049
Ga23	Ga	0.500000	0.500000	0.000000	1.556049
Ga24	Ga	0.000000	0.500000	0.000000	1.556049
H1	H	0.723400	0.000000	0.355200	0.108679
H2	H	0.276600	0.276600	0.355200	0.108679
H3	H	0.000000	0.723400	0.355200	0.108679
H4	H	0.276600	0.000000	0.855200	0.108679
H5	H	0.723400	0.723400	0.855200	0.108679
H6	H	0.000000	0.276600	0.855200	0.108679
H7	H	0.723400	0.000000	0.644800	0.108679
H8	H	0.000000	0.723400	0.644800	0.108679
H9	H	0.276600	0.276600	0.644800	0.108679
H10	H	0.276600	0.000000	0.144800	0.108679
H11	H	0.000000	0.276600	0.144800	0.108679
H12	H	0.723400	0.723400	0.144800	0.108679
H13	H	0.276600	0.000000	0.644800	0.108679
H14	H	0.723400	0.723400	0.644800	0.108679
H15	H	0.000000	0.276600	0.644800	0.108679
H16	H	0.723400	0.000000	0.144800	0.108679
H17	H	0.276600	0.276600	0.144800	0.108679
H18	H	0.000000	0.723400	0.144800	0.108679
H19	H	0.276600	0.000000	0.355200	0.108679
H20	H	0.000000	0.276600	0.355200	0.108679
H21	H	0.723400	0.723400	0.355200	0.108679
H22	H	0.723400	0.000000	0.855200	0.108679
H23	H	0.000000	0.723400	0.855200	0.108679
H24	H	0.276600	0.276600	0.855200	0.108679
H25	H	0.574900	0.787450	0.447700	0.108679
H26	H	0.212550	0.425100	0.447700	0.108679
H27	H	0.212550	0.787450	0.447700	0.108679
H28	H	0.425100	0.212550	0.947700	0.108679
H29	H	0.787450	0.574900	0.947700	0.108679
H30	H	0.787450	0.212550	0.947700	0.108679
H31	H	0.787450	0.212550	0.552300	0.108679
H32	H	0.787450	0.574900	0.552300	0.108679
H33	H	0.425100	0.212550	0.552300	0.108679
H34	H	0.212550	0.787450	0.052300	0.108679
H35	H	0.212550	0.425100	0.052300	0.108679
H36	H	0.574900	0.787450	0.052300	0.108679
C1	C	0.610500	0.975200	0.425000	0.688558
C2	C	0.704400	0.935100	0.367800	0.016429
C3	C	0.646000	0.905700	0.405100	-0.163565
C4	C	0.364700	0.389500	0.425000	0.688558
C5	C	0.230700	0.295600	0.367800	0.016429
C6	C	0.259700	0.354000	0.405100	-0.163565
C7	C	0.024800	0.635300	0.425000	0.688558
C8	C	0.064900	0.769300	0.367800	0.016429
C9	C	0.094300	0.740300	0.405100	-0.163565
C10	C	0.389500	0.024800	0.925000	0.688558
C11	C	0.295600	0.064900	0.867800	0.016429
C12	C	0.354000	0.094300	0.905100	-0.163565
C13	C	0.635300	0.610500	0.925000	0.688558
C14	C	0.769300	0.704400	0.867800	0.016429
C15	C	0.740300	0.646000	0.905100	-0.163565
C16	C	0.975200	0.364700	0.925000	0.688558
C17	C	0.935100	0.230700	0.867800	0.016429
C18	C	0.905700	0.259700	0.905100	-0.163565
C19	C	0.635300	0.024800	0.575000	0.688558
C20	C	0.769300	0.064900	0.632200	0.016429
C21	C	0.740300	0.094300	0.594900	-0.163565
C22	C	0.975200	0.610500	0.575000	0.688558
C23	C	0.935100	0.704400	0.632200	0.016429
C24	C	0.905700	0.646000	0.594900	-0.163565
C25	C	0.389500	0.364700	0.575000	0.688558
C26	C	0.295600	0.230700	0.632200	0.016429
C27	C	0.354000	0.259700	0.594900	-0.163565
C28	C	0.364700	0.975200	0.075000	0.688558
C29	C	0.230700	0.935100	0.132200	0.016429
C30	C	0.259700	0.905700	0.094900	-0.163565
C31	C	0.024800	0.389500	0.075000	0.688558
C32	C	0.064900	0.295600	0.132200	0.016429
C33	C	0.094300	0.354000	0.094900	-0.163565
C34	C	0.610500	0.635300	0.075000	0.688558
C35	C	0.704400	0.769300	0.132200	0.016429
C36	C	0.646000	0.740300	0.094900	-0.163565
C37	C	0.389500	0.024800	0.575000	0.688558
C38	C	0.295600	0.064900	0.632200	0.016429
C39	C	0.354000	0.094300	0.594900	-0.163565
C40	C	0.635300	0.610500	0.575000	0.688558
C41	C	0.769300	0.704400	0.632200	0.016429
C42	C	0.740300	0.646000	0.594900	-0.163565
C43	C	0.975200	0.364700	0.575000	0.688558
C44	C	0.935100	0.230700	0.632200	0.016429
C45	C	0.905700	0.259700	0.594900	-0.163565
C46	C	0.610500	0.975200	0.075000	0.688558
C47	C	0.704400	0.935100	0.132200	0.016429
C48	C	0.646000	0.905700	0.094900	-0.163565
C49	C	0.364700	0.389500	0.075000	0.688558
C50	C	0.230700	0.295600	0.132200	0.016429
C51	C	0.259700	0.354000	0.094900	-0.163565
C52	C	0.024800	0.635300	0.075000	0.688558
C53	C	0.064900	0.769300	0.132200	0.016429
C54	C	0.094300	0.740300	0.094900	-0.163565
C55	C	0.364700	0.975200	0.425000	0.688558
C56	C	0.230700	0.935100	0.367800	0.016429
C57	C	0.259700	0.905700	0.405100	-0.163565
C58	C	0.024800	0.389500	0.425000	0.688558
C59	C	0.064900	0.295600	0.367800	0.016429
C60	C	0.094300	0.354000	0.405100	-0.163565
C61	C	0.610500	0.635300	0.425000	0.688558
C62	C	0.704400	0.769300	0.367800	0.016429
C63	C	0.646000	0.740300	0.405100	-0.163565
C64	C	0.635300	0.024800	0.925000	0.688558
C65	C	0.769300	0.064900	0.867800	0.016429
C66	C	0.740300	0.094300	0.905100	-0.163565
C67	C	0.975200	0.610500	0.925000	0.688558
C68	C	0.935100	0.704400	0.867800	0.016429
C69	C	0.905700	0.646000	0.905100	-0.163565
C70	C	0.389500	0.364700	0.925000	0.688558
C71	C	0.295600	0.230700	0.867800	0.016429
C72	C	0.354000	0.259700	0.905100	-0.163565
C73	C	0.799500	0.899750	0.309500	0.707043
C74	C	0.734400	0.867200	0.349300	-0.164757
C75	C	0.615600	0.807800	0.423300	0.016429
C76	C	0.100250	0.200500	0.309500	0.707043
C77	C	0.132800	0.265600	0.349300	-0.164757
C78	C	0.192200	0.384400	0.423300	0.016429
C79	C	0.100250	0.899750	0.309500	0.707043
C80	C	0.132800	0.867200	0.349300	-0.164757
C81	C	0.192200	0.807800	0.423300	0.016429
C82	C	0.200500	0.100250	0.809500	0.707043
C83	C	0.265600	0.132800	0.849300	-0.164757
C84	C	0.384400	0.192200	0.923300	0.016429
C85	C	0.899750	0.799500	0.809500	0.707043
C86	C	0.867200	0.734400	0.849300	-0.164757
C87	C	0.807800	0.615600	0.923300	0.016429
C88	C	0.899750	0.100250	0.809500	0.707043
C89	C	0.867200	0.132800	0.849300	-0.164757
C90	C	0.807800	0.192200	0.923300	0.016429
C91	C	0.899750	0.100250	0.690500	0.707043
C92	C	0.867200	0.132800	0.650700	-0.164757
C93	C	0.807800	0.192200	0.576700	0.016429
C94	C	0.899750	0.799500	0.690500	0.707043
C95	C	0.867200	0.734400	0.650700	-0.164757
C96	C	0.807800	0.615600	0.576700	0.016429
C97	C	0.200500	0.100250	0.690500	0.707043
C98	C	0.265600	0.132800	0.650700	-0.164757
C99	C	0.384400	0.192200	0.576700	0.016429
C100	C	0.100250	0.899750	0.190500	0.707043
C101	C	0.132800	0.867200	0.150700	-0.164757
C102	C	0.192200	0.807800	0.076700	0.016429
C103	C	0.100250	0.200500	0.190500	0.707043
C104	C	0.132800	0.265600	0.150700	-0.164757
C105	C	0.192200	0.384400	0.076700	0.016429
C106	C	0.799500	0.899750	0.190500	0.707043
C107	C	0.734400	0.867200	0.150700	-0.164757
C108	C	0.615600	0.807800	0.076700	0.016429
O1	O	0.824700	0.989500	0.295120	-0.623602
O2	O	0.623300	0.055000	0.404550	-0.610545
O3	O	0.570800	0.948900	0.461100	-0.583104
O4	O	0.164800	0.175300	0.295120	-0.623602
O5	O	0.431700	0.376700	0.404550	-0.610545
O6	O	0.378100	0.429200	0.461100	-0.583104
O7	O	0.010500	0.835200	0.295120	-0.623602
O8	O	0.945000	0.568300	0.404550	-0.610545
O9	O	0.051100	0.621900	0.461100	-0.583104
O10	O	0.175300	0.010500	0.795120	-0.623602
O11	O	0.376700	0.945000	0.904550	-0.610545
O12	O	0.429200	0.051100	0.961100	-0.583104
O13	O	0.835200	0.824700	0.795120	-0.623602
O14	O	0.568300	0.623300	0.904550	-0.610545
O15	O	0.621900	0.570800	0.961100	-0.583104
O16	O	0.989500	0.164800	0.795120	-0.623602
O17	O	0.055000	0.431700	0.904550	-0.610545
O18	O	0.948900	0.378100	0.961100	-0.583104
O19	O	0.835200	0.010500	0.704880	-0.623602
O20	O	0.568300	0.945000	0.595450	-0.610545
O21	O	0.621900	0.051100	0.538900	-0.583104
O22	O	0.989500	0.824700	0.704880	-0.623602
O23	O	0.055000	0.623300	0.595450	-0.610545
O24	O	0.948900	0.570800	0.538900	-0.583104
O25	O	0.175300	0.164800	0.704880	-0.623602
O26	O	0.376700	0.431700	0.595450	-0.610545
O27	O	0.429200	0.378100	0.538900	-0.583104
O28	O	0.164800	0.989500	0.204880	-0.623602
O29	O	0.431700	0.055000	0.095450	-0.610545
O30	O	0.378100	0.948900	0.038900	-0.583104
O31	O	0.010500	0.175300	0.204880	-0.623602
O32	O	0.945000	0.376700	0.095450	-0.610545
O33	O	0.051100	0.429200	0.038900	-0.583104
O34	O	0.824700	0.835200	0.204880	-0.623602
O35	O	0.623300	0.568300	0.095450	-0.610545
O36	O	0.570800	0.621900	0.038900	-0.583104
O37	O	0.175300	0.010500	0.704880	-0.623602
O38	O	0.376700	0.945000	0.595450	-0.610545
O39	O	0.429200	0.051100	0.538900	-0.583104
O40	O	0.835200	0.824700	0.704880	-0.623602
O41	O	0.568300	0.623300	0.595450	-0.610545
O42	O	0.621900	0.570800	0.538900	-0.583104
O43	O	0.989500	0.164800	0.704880	-0.623602
O44	O	0.055000	0.431700	0.595450	-0.610545
O45	O	0.948900	0.378100	0.538900	-0.583104
O46	O	0.824700	0.989500	0.204880	-0.623602
O47	O	0.623300	0.055000	0.095450	-0.610545
O48	O	0.570800	0.948900	0.038900	-0.583104
O49	O	0.164800	0.175300	0.204880	-0.623602
O50	O	0.431700	0.376700	0.095450	-0.610545
O51	O	0.378100	0.429200	0.038900	-0.583104
O52	O	0.010500	0.835200	0.204880	-0.623602
O53	O	0.945000	0.568300	0.095450	-0.610545
O54	O	0.051100	0.621900	0.038900	-0.583104
O55	O	0.164800	0.989500	0.295120	-0.623602
O56	O	0.431700	0.055000	0.404550	-0.610545
O57	O	0.378100	0.948900	0.461100	-0.583104
O58	O	0.010500	0.175300	0.295120	-0.623602
O59	O	0.945000	0.376700	0.404550	-0.610545
O60	O	0.051100	0.429200	0.461100	-0.583104
O61	O	0.824700	0.835200	0.295120	-0.623602
O62	O	0.623300	0.568300	0.404550	-0.610545
O63	O	0.570800	0.621900	0.461100	-0.583104
O64	O	0.835200	0.010500	0.795120	-0.623602
O65	O	0.568300	0.945000	0.904550	-0.610545
O66	O	0.621900	0.051100	0.961100	-0.583104
O67	O	0.989500	0.824700	0.795120	-0.623602
O68	O	0.055000	0.623300	0.904550	-0.610545
O69	O	0.948900	0.570800	0.961100	-0.583104
O70	O	0.175300	0.164800	0.795120	-0.623602
O71	O	0.376700	0.431700	0.904550	-0.610545
O72	O	0.429200	0.378100	0.961100	-0.583104
O73	O	0.568600	0.137200	0.474500	-0.647702
O74	O	0.568600	0.431400	0.474500	-0.647702
O75	O	0.862800	0.431400	0.474500	-0.647702
O76	O	0.431400	0.862800	0.974500	-0.647702
O77	O	0.431400	0.568600	0.974500	-0.647702
O78	O	0.137200	0.568600	0.974500	-0.647702
O79	O	0.431400	0.862800	0.525500	-0.647702
O80	O	0.137200	0.568600	0.525500	-0.647702
O81	O	0.431400	0.568600	0.525500	-0.647702
O82	O	0.568600	0.137200	0.025500	-0.647702
O83	O	0.862800	0.431400	0.025500	-0.647702
O84	O	0.568600	0.431400	0.025500	-0.647702
O85	O	0.000000	0.000000	0.250000	-0.986272
O86	O	0.000000	0.000000	0.750000	-0.986272
O87	O	0.536000	0.268000	0.418600	-0.677925
O88	O	0.732000	0.464000	0.418600	-0.677925
O89	O	0.732000	0.268000	0.418600	-0.677925
O90	O	0.464000	0.732000	0.918600	-0.677925
O91	O	0.268000	0.536000	0.918600	-0.677925
O92	O	0.268000	0.732000	0.918600	-0.677925
O93	O	0.268000	0.732000	0.581400	-0.677925
O94	O	0.268000	0.536000	0.581400	-0.677925
O95	O	0.464000	0.732000	0.581400	-0.677925
O96	O	0.732000	0.268000	0.081400	-0.677925
O97	O	0.732000	0.464000	0.081400	-0.677925
O98	O	0.536000	0.268000	0.081400	-0.677925
