data_HOPHUP_clean_PM
_symmetry_space_group_name_H-M	'P1'
_cell_length_a	7.485000
_cell_length_b	7.903000
_cell_length_c	9.355000
_cell_angle_alpha	90.000000
_cell_angle_beta	90.000000
_cell_angle_gamma	118.249996
_symmetry_Int_Tables_number 1

loop_
_symmetry_equiv_pos_as_xyz
'x,y,z'

loop_
_atom_site_label
_atom_site_type_symbol
_atom_site_fract_x
_atom_site_fract_y
_atom_site_fract_z
_atom_site_charge
V1	V	0.566000	0.038200	0.250000	1.429567
V2	V	0.434000	0.961800	0.750000	1.429567
V3	V	0.039200	0.994900	0.750000	1.429567
V4	V	0.960800	0.005100	0.250000	1.429567
P1	P	0.631700	0.808200	0.516000	1.522117
P2	P	0.368300	0.191800	0.016000	1.522117
P3	P	0.368300	0.191800	0.484000	1.522117
P4	P	0.631700	0.808200	0.984000	1.522117
C1	C	0.539500	0.571700	0.428100	-0.294419
C2	C	0.460500	0.428300	0.928100	-0.294419
C3	C	0.460500	0.428300	0.571900	-0.294419
C4	C	0.539500	0.571700	0.071900	-0.294419
O1	O	0.811200	0.814300	0.611500	-0.745103
O2	O	0.705100	0.934500	0.388600	-0.859267
O3	O	0.491400	0.858000	0.592800	-0.745103
O4	O	0.188800	0.185700	0.111500	-0.745103
O5	O	0.294900	0.065500	0.888600	-0.859267
O6	O	0.508600	0.142000	0.092800	-0.745103
O7	O	0.188800	0.185700	0.388500	-0.745103
O8	O	0.294900	0.065500	0.611400	-0.859267
O9	O	0.508600	0.142000	0.407200	-0.745103
O10	O	0.811200	0.814300	0.888500	-0.745103
O11	O	0.705100	0.934500	0.111400	-0.859267
O12	O	0.491400	0.858000	0.907200	-0.745103
O13	O	0.895900	0.271500	0.250000	-0.615584
O14	O	0.104100	0.728500	0.750000	-0.615584
