data_HUCLIB_clean_PM
_symmetry_space_group_name_H-M	'P1'
_cell_length_a	9.172600
_cell_length_b	9.714500
_cell_length_c	22.344400
_cell_angle_alpha	90.000000
_cell_angle_beta	90.000000
_cell_angle_gamma	117.295001
_symmetry_Int_Tables_number 1

loop_
_symmetry_equiv_pos_as_xyz
'x,y,z'

loop_
_atom_site_label
_atom_site_type_symbol
_atom_site_fract_x
_atom_site_fract_y
_atom_site_fract_z
_atom_site_charge
Sm1	Sm	0.882330	0.142850	0.008690	2.260635
Sm2	Sm	0.617670	0.857150	0.508680	2.260635
Sm3	Sm	0.117670	0.857150	0.991310	2.260635
Sm4	Sm	0.382330	0.142850	0.491320	2.260635
Ag1	Ag	0.516910	0.179330	0.147630	0.401769
Ag2	Ag	0.983090	0.820670	0.647630	0.401769
Ag3	Ag	0.483090	0.820670	0.852370	0.401769
Ag4	Ag	0.016910	0.179330	0.352370	0.401769
H1	H	0.756000	0.469600	0.868100	0.129620
H2	H	0.316600	0.529100	0.933400	0.079779
H3	H	0.722100	0.678800	0.841000	0.081943
H4	H	0.560800	0.279500	0.927900	0.100862
H5	H	0.988300	0.139500	0.218400	0.079779
H6	H	0.100600	0.812400	0.158900	0.100862
H7	H	0.114100	0.909700	0.332200	0.081943
H8	H	0.140000	0.763500	0.257300	0.129620
H9	H	0.744000	0.530400	0.368100	0.129620
H10	H	0.183400	0.470900	0.433400	0.079779
H11	H	0.777900	0.321200	0.341000	0.081943
H12	H	0.939200	0.720500	0.427900	0.100862
H13	H	0.511700	0.860500	0.718400	0.079779
H14	H	0.399400	0.187600	0.658900	0.100862
H15	H	0.385900	0.090300	0.832200	0.081943
H16	H	0.360000	0.236500	0.757300	0.129620
H17	H	0.244000	0.530400	0.131900	0.129620
H18	H	0.683400	0.470900	0.066600	0.079779
H19	H	0.277900	0.321200	0.159000	0.081943
H20	H	0.439200	0.720500	0.072100	0.100862
H21	H	0.011700	0.860500	0.781600	0.079779
H22	H	0.899400	0.187600	0.841100	0.100862
H23	H	0.885900	0.090300	0.667800	0.081943
H24	H	0.860000	0.236500	0.742700	0.129620
H25	H	0.256000	0.469600	0.631900	0.129620
H26	H	0.816600	0.529100	0.566600	0.079779
H27	H	0.222100	0.678800	0.659000	0.081943
H28	H	0.060800	0.279500	0.572100	0.100862
H29	H	0.488300	0.139500	0.281600	0.079779
H30	H	0.600600	0.812400	0.341100	0.100862
H31	H	0.614100	0.909700	0.167800	0.081943
H32	H	0.640000	0.763500	0.242700	0.129620
C1	C	0.414700	0.383400	0.936170	-0.220397
C2	C	0.664800	0.478900	0.881290	-0.179026
C3	C	0.404700	0.515400	0.919510	0.208555
C4	C	0.644100	0.604200	0.865660	0.169355
C5	C	0.281100	0.258600	0.972260	0.760124
C6	C	0.549000	0.366200	0.916900	0.058734
C7	C	0.020800	0.063600	0.226180	0.208555
C8	C	0.086400	0.869100	0.189900	0.058734
C9	C	0.093100	0.927800	0.293050	0.169355
C10	C	0.040100	0.983100	0.178160	-0.220397
C11	C	0.111100	0.841200	0.248300	-0.179026
C12	C	0.497200	0.020700	0.033030	0.541506
C13	C	0.007800	0.022900	0.116430	0.760124
C14	C	0.008300	0.508100	0.034690	0.542738
C15	C	0.085300	0.616600	0.436170	-0.220397
C16	C	0.835200	0.521100	0.381290	-0.179026
C17	C	0.095300	0.484600	0.419510	0.208555
C18	C	0.855900	0.395800	0.365660	0.169355
C19	C	0.218900	0.741400	0.472260	0.760124
C20	C	0.951000	0.633800	0.416900	0.058734
C21	C	0.479200	0.936400	0.726180	0.208555
C22	C	0.413600	0.130900	0.689900	0.058734
C23	C	0.406900	0.072200	0.793050	0.169355
C24	C	0.459900	0.016900	0.678160	-0.220397
C25	C	0.388900	0.158800	0.748300	-0.179026
C26	C	0.002800	0.979300	0.533030	0.541506
C27	C	0.492200	0.977100	0.616430	0.760124
C28	C	0.491700	0.491900	0.534690	0.542738
C29	C	0.585300	0.616600	0.063830	-0.220397
C30	C	0.335200	0.521100	0.118710	-0.179026
C31	C	0.595300	0.484600	0.080490	0.208555
C32	C	0.355900	0.395800	0.134340	0.169355
C33	C	0.718900	0.741400	0.027740	0.760124
C34	C	0.451000	0.633800	0.083100	0.058734
C35	C	0.979200	0.936400	0.773820	0.208555
C36	C	0.913600	0.130900	0.810100	0.058734
C37	C	0.906900	0.072200	0.706950	0.169355
C38	C	0.959900	0.016900	0.821840	-0.220397
C39	C	0.888900	0.158800	0.751700	-0.179026
C40	C	0.502800	0.979300	0.966970	0.541506
C41	C	0.992200	0.977100	0.883570	0.760124
C42	C	0.991700	0.491900	0.965310	0.542738
C43	C	0.914700	0.383400	0.563830	-0.220397
C44	C	0.164800	0.478900	0.618710	-0.179026
C45	C	0.904700	0.515400	0.580490	0.208555
C46	C	0.144100	0.604200	0.634340	0.169355
C47	C	0.781100	0.258600	0.527740	0.760124
C48	C	0.049000	0.366200	0.583100	0.058734
C49	C	0.520800	0.063600	0.273820	0.208555
C50	C	0.586400	0.869100	0.310100	0.058734
C51	C	0.593100	0.927800	0.206950	0.169355
C52	C	0.540100	0.983100	0.321840	-0.220397
C53	C	0.611100	0.841200	0.251700	-0.179026
C54	C	0.997200	0.020700	0.466970	0.541506
C55	C	0.507800	0.022900	0.383570	0.760124
C56	C	0.508300	0.508100	0.465310	0.542738
N1	N	0.516300	0.625400	0.884110	-0.324638
N2	N	0.046300	0.038100	0.282960	-0.324638
N3	N	0.983700	0.374600	0.384110	-0.324638
N4	N	0.453700	0.961900	0.782960	-0.324638
N5	N	0.483700	0.374600	0.115890	-0.324638
N6	N	0.953700	0.961900	0.717040	-0.324638
N7	N	0.016300	0.625400	0.615890	-0.324638
N8	N	0.546300	0.038100	0.217040	-0.324638
O1	O	0.630500	0.116500	0.055980	-0.640256
O2	O	0.176900	0.290000	0.996740	-0.719837
O3	O	0.283400	0.130900	0.973830	-0.719837
O4	O	0.950400	0.384400	0.063820	-0.665132
O5	O	0.361400	0.958200	0.058860	-0.626605
O6	O	0.078700	0.642000	0.055700	-0.665132
O7	O	0.944300	0.111800	0.111570	-0.719837
O8	O	0.044800	0.965000	0.072460	-0.719837
O9	O	0.869500	0.883500	0.555980	-0.640256
O10	O	0.323100	0.710000	0.496740	-0.719837
O11	O	0.216600	0.869100	0.473830	-0.719837
O12	O	0.549600	0.615600	0.563820	-0.665132
O13	O	0.138600	0.041800	0.558860	-0.626605
O14	O	0.421300	0.358000	0.555700	-0.665132
O15	O	0.555700	0.888200	0.611570	-0.719837
O16	O	0.455200	0.035000	0.572460	-0.719837
O17	O	0.369500	0.883500	0.944020	-0.640256
O18	O	0.823100	0.710000	0.003260	-0.719837
O19	O	0.716600	0.869100	0.026170	-0.719837
O20	O	0.049600	0.615600	0.936180	-0.665132
O21	O	0.638600	0.041800	0.941140	-0.626605
O22	O	0.921300	0.358000	0.944300	-0.665132
O23	O	0.055700	0.888200	0.888430	-0.719837
O24	O	0.955200	0.035000	0.927540	-0.719837
O25	O	0.130500	0.116500	0.444020	-0.640256
O26	O	0.676900	0.290000	0.503260	-0.719837
O27	O	0.783400	0.130900	0.526170	-0.719837
O28	O	0.450400	0.384400	0.436180	-0.665132
O29	O	0.861400	0.958200	0.441140	-0.626605
O30	O	0.578700	0.642000	0.444300	-0.665132
O31	O	0.444300	0.111800	0.388430	-0.719837
O32	O	0.544800	0.965000	0.427540	-0.719837
