data_IBUYAH_clean_PM
_symmetry_space_group_name_H-M	'P1'
_cell_length_a	7.730000
_cell_length_b	17.797000
_cell_length_c	26.675000
_cell_angle_alpha	93.465999
_cell_angle_beta	90.000000
_cell_angle_gamma	90.000000
_symmetry_Int_Tables_number 1

loop_
_symmetry_equiv_pos_as_xyz
'x,y,z'

loop_
_atom_site_label
_atom_site_type_symbol
_atom_site_fract_x
_atom_site_fract_y
_atom_site_fract_z
_atom_site_charge
Zn1	Zn	0.432000	0.196570	0.024000	0.942472
Zn2	Zn	0.976470	0.303410	0.963330	0.885181
Zn3	Zn	0.932000	0.803430	0.476000	0.942472
Zn4	Zn	0.476470	0.696590	0.536670	0.885181
Zn5	Zn	0.568000	0.803430	0.976000	0.942472
Zn6	Zn	0.023530	0.696590	0.036670	0.885181
Zn7	Zn	0.068000	0.196570	0.524000	0.942472
Zn8	Zn	0.523530	0.303410	0.463330	0.885181
H1	H	0.277400	0.042600	0.989800	0.099276
H2	H	0.644200	0.452800	0.066400	0.099276
H3	H	0.328700	0.768000	0.093400	0.102257
H4	H	0.145400	0.566400	0.111200	0.117820
H5	H	0.399900	0.581800	0.163900	0.133854
H6	H	0.642000	0.776400	0.099700	0.119180
H7	H	0.887300	0.830200	0.134700	0.119180
H8	H	0.797200	0.726800	0.261100	0.119180
H9	H	0.549900	0.673700	0.225700	0.119180
H10	H	0.129500	0.684200	0.231200	0.119180
H11	H	0.264400	0.630900	0.298000	0.119180
H12	H	0.253200	0.830100	0.375300	0.119180
H13	H	0.114200	0.882400	0.308900	0.119180
H14	H	0.289300	0.763900	0.444400	0.102257
H15	H	0.468700	0.595000	0.356300	0.133854
H16	H	0.561000	0.577900	0.442000	0.117820
H17	H	0.847300	0.945600	0.216200	0.119180
H18	H	0.934000	0.055500	0.182300	0.119180
H19	H	0.409200	0.972800	0.162700	0.119180
H20	H	0.321100	0.860100	0.194300	0.119180
H21	H	0.101500	0.176300	0.185100	0.133854
H22	H	0.377700	0.053100	0.086600	0.102264
H23	H	0.218200	0.258500	0.123400	0.119166
H24	H	0.777400	0.957400	0.510200	0.099276
H25	H	0.144200	0.547200	0.433600	0.099276
H26	H	0.828700	0.232000	0.406600	0.102257
H27	H	0.645400	0.433600	0.388800	0.117820
H28	H	0.899900	0.418200	0.336100	0.133854
H29	H	0.142000	0.223600	0.400300	0.119180
H30	H	0.387300	0.169800	0.365300	0.119180
H31	H	0.297200	0.273200	0.238900	0.119180
H32	H	0.049900	0.326300	0.274300	0.119180
H33	H	0.629500	0.315800	0.268800	0.119180
H34	H	0.764400	0.369100	0.202000	0.119180
H35	H	0.753200	0.169900	0.124700	0.119180
H36	H	0.614200	0.117600	0.191100	0.119180
H37	H	0.789300	0.236100	0.055600	0.102257
H38	H	0.968700	0.405000	0.143700	0.133854
H39	H	0.061000	0.422100	0.058000	0.117820
H40	H	0.347300	0.054400	0.283800	0.119180
H41	H	0.434000	0.944500	0.317700	0.119180
H42	H	0.909200	0.027200	0.337300	0.119180
H43	H	0.821100	0.139900	0.305700	0.119180
H44	H	0.601500	0.823700	0.314900	0.133854
H45	H	0.877700	0.946900	0.413400	0.102264
H46	H	0.718200	0.741500	0.376600	0.119166
H47	H	0.722600	0.957400	0.010200	0.099276
H48	H	0.355800	0.547200	0.933600	0.099276
H49	H	0.671300	0.232000	0.906600	0.102257
H50	H	0.854600	0.433600	0.888800	0.117820
H51	H	0.600100	0.418200	0.836100	0.133854
H52	H	0.358000	0.223600	0.900300	0.119180
H53	H	0.112700	0.169800	0.865300	0.119180
H54	H	0.202800	0.273200	0.738900	0.119180
H55	H	0.450100	0.326300	0.774300	0.119180
H56	H	0.870500	0.315800	0.768800	0.119180
H57	H	0.735600	0.369100	0.702000	0.119180
H58	H	0.746800	0.169900	0.624700	0.119180
H59	H	0.885800	0.117600	0.691100	0.119180
H60	H	0.710700	0.236100	0.555600	0.102257
H61	H	0.531300	0.405000	0.643700	0.133854
H62	H	0.439000	0.422100	0.558000	0.117820
H63	H	0.152700	0.054400	0.783800	0.119180
H64	H	0.066000	0.944500	0.817700	0.119180
H65	H	0.590800	0.027200	0.837300	0.119180
H66	H	0.678900	0.139900	0.805700	0.119180
H67	H	0.898500	0.823700	0.814900	0.133854
H68	H	0.622300	0.946900	0.913400	0.102264
H69	H	0.781800	0.741500	0.876600	0.119166
H70	H	0.222600	0.042600	0.489800	0.099276
H71	H	0.855800	0.452800	0.566400	0.099276
H72	H	0.171300	0.768000	0.593400	0.102257
H73	H	0.354600	0.566400	0.611200	0.117820
H74	H	0.100100	0.581800	0.663900	0.133854
H75	H	0.858000	0.776400	0.599700	0.119180
H76	H	0.612700	0.830200	0.634700	0.119180
H77	H	0.702800	0.726800	0.761100	0.119180
H78	H	0.950100	0.673700	0.725700	0.119180
H79	H	0.370500	0.684200	0.731200	0.119180
H80	H	0.235600	0.630900	0.798000	0.119180
H81	H	0.246800	0.830100	0.875300	0.119180
H82	H	0.385800	0.882400	0.808900	0.119180
H83	H	0.210700	0.763900	0.944400	0.102257
H84	H	0.031300	0.595000	0.856300	0.133854
H85	H	0.939000	0.577900	0.942000	0.117820
H86	H	0.652700	0.945600	0.716200	0.119180
H87	H	0.566000	0.055500	0.682300	0.119180
H88	H	0.090800	0.972800	0.662700	0.119180
H89	H	0.178900	0.860100	0.694300	0.119180
H90	H	0.398500	0.176300	0.685100	0.133854
H91	H	0.122300	0.053100	0.586600	0.102264
H92	H	0.281800	0.258500	0.623400	0.119166
C1	C	0.028800	0.074310	0.988080	-0.132126
C2	C	0.165300	0.025150	0.994150	-0.063111
C3	C	0.857600	0.048800	0.993640	-0.097722
C4	C	0.070100	0.153390	0.976070	0.691190
C5	C	0.692400	0.094060	0.986860	0.646875
C6	C	0.458500	0.344110	0.026380	0.646875
C7	C	0.476300	0.424540	0.011380	-0.100668
C8	C	0.251100	0.409340	0.942170	0.647116
C9	C	0.388300	0.453670	0.971010	-0.099696
C10	C	0.585700	0.471690	0.039460	-0.067849
C11	C	0.314300	0.719800	0.104310	0.118709
C12	C	0.214700	0.609200	0.114260	0.050232
C13	C	0.354600	0.617300	0.143380	-0.135678
C14	C	0.571100	0.720690	0.159510	0.110412
C15	C	0.672700	0.766900	0.132410	-0.121314
C16	C	0.819500	0.799000	0.153360	-0.125894
C17	C	0.867600	0.785400	0.202230	0.132274
C18	C	0.765700	0.737500	0.228620	-0.125894
C19	C	0.617700	0.705500	0.207470	-0.121314
C20	C	0.106500	0.787400	0.263460	0.132274
C21	C	0.152700	0.713700	0.260420	-0.125894
C22	C	0.234000	0.681500	0.300260	-0.121314
C23	C	0.269000	0.725600	0.343230	0.110412
C24	C	0.226700	0.800400	0.346460	-0.121314
C25	C	0.144300	0.831700	0.306710	-0.125894
C26	C	0.344900	0.719600	0.433350	0.118709
C27	C	0.443900	0.626800	0.384350	-0.135678
C28	C	0.493600	0.617400	0.431730	0.050232
C29	C	0.073000	0.890200	0.207140	0.132274
C30	C	0.959900	0.950000	0.204480	-0.125894
C31	C	0.011900	0.016100	0.184640	-0.121314
C32	C	0.179300	0.023400	0.168370	0.110412
C33	C	0.294900	0.966700	0.172590	-0.121314
C34	C	0.242300	0.899200	0.191780	-0.125894
C35	C	0.171400	0.161700	0.157860	-0.134806
C36	C	0.324000	0.094200	0.103270	0.133997
C37	C	0.235900	0.206800	0.123620	0.061130
C38	C	0.528800	0.925690	0.511920	-0.132126
C39	C	0.665300	0.974850	0.505850	-0.063111
C40	C	0.357600	0.951200	0.506360	-0.097722
C41	C	0.570100	0.846610	0.523930	0.691190
C42	C	0.192400	0.905940	0.513140	0.646875
C43	C	0.958500	0.655890	0.473620	0.646875
C44	C	0.976300	0.575460	0.488620	-0.100668
C45	C	0.751100	0.590660	0.557830	0.647116
C46	C	0.888300	0.546330	0.528990	-0.099696
C47	C	0.085700	0.528310	0.460540	-0.067849
C48	C	0.814300	0.280200	0.395690	0.118709
C49	C	0.714700	0.390800	0.385740	0.050232
C50	C	0.854600	0.382700	0.356620	-0.135678
C51	C	0.071100	0.279310	0.340490	0.110412
C52	C	0.172700	0.233100	0.367590	-0.121314
C53	C	0.319500	0.201000	0.346640	-0.125894
C54	C	0.367600	0.214600	0.297770	0.132274
C55	C	0.265700	0.262500	0.271380	-0.125894
C56	C	0.117700	0.294500	0.292530	-0.121314
C57	C	0.606500	0.212600	0.236540	0.132274
C58	C	0.652700	0.286300	0.239580	-0.125894
C59	C	0.734000	0.318500	0.199740	-0.121314
C60	C	0.769000	0.274400	0.156770	0.110412
C61	C	0.726700	0.199600	0.153540	-0.121314
C62	C	0.644300	0.168300	0.193290	-0.125894
C63	C	0.844900	0.280400	0.066650	0.118709
C64	C	0.943900	0.373200	0.115650	-0.135678
C65	C	0.993600	0.382600	0.068270	0.050232
C66	C	0.573000	0.109800	0.292860	0.132274
C67	C	0.459900	0.050000	0.295520	-0.125894
C68	C	0.511900	0.983900	0.315360	-0.121314
C69	C	0.679300	0.976600	0.331630	0.110412
C70	C	0.794900	0.033300	0.327410	-0.121314
C71	C	0.742300	0.100800	0.308220	-0.125894
C72	C	0.671400	0.838300	0.342140	-0.134806
C73	C	0.824000	0.905800	0.396730	0.133997
C74	C	0.735900	0.793200	0.376380	0.061130
C75	C	0.971200	0.925690	0.011920	-0.132126
C76	C	0.834700	0.974850	0.005850	-0.063111
C77	C	0.142400	0.951200	0.006360	-0.097722
C78	C	0.929900	0.846610	0.023930	0.691190
C79	C	0.307600	0.905940	0.013140	0.646875
C80	C	0.541500	0.655890	0.973620	0.646875
C81	C	0.523700	0.575460	0.988620	-0.100668
C82	C	0.748900	0.590660	0.057830	0.647116
C83	C	0.611700	0.546330	0.028990	-0.099696
C84	C	0.414300	0.528310	0.960540	-0.067849
C85	C	0.685700	0.280200	0.895690	0.118709
C86	C	0.785300	0.390800	0.885740	0.050232
C87	C	0.645400	0.382700	0.856620	-0.135678
C88	C	0.428900	0.279310	0.840490	0.110412
C89	C	0.327300	0.233100	0.867590	-0.121314
C90	C	0.180500	0.201000	0.846640	-0.125894
C91	C	0.132400	0.214600	0.797770	0.132274
C92	C	0.234300	0.262500	0.771380	-0.125894
C93	C	0.382300	0.294500	0.792530	-0.121314
C94	C	0.893500	0.212600	0.736540	0.132274
C95	C	0.847300	0.286300	0.739580	-0.125894
C96	C	0.766000	0.318500	0.699740	-0.121314
C97	C	0.731000	0.274400	0.656770	0.110412
C98	C	0.773300	0.199600	0.653540	-0.121314
C99	C	0.855700	0.168300	0.693290	-0.125894
C100	C	0.655100	0.280400	0.566650	0.118709
C101	C	0.556100	0.373200	0.615650	-0.135678
C102	C	0.506400	0.382600	0.568270	0.050232
C103	C	0.927000	0.109800	0.792860	0.132274
C104	C	0.040100	0.050000	0.795520	-0.125894
C105	C	0.988100	0.983900	0.815360	-0.121314
C106	C	0.820700	0.976600	0.831630	0.110412
C107	C	0.705100	0.033300	0.827410	-0.121314
C108	C	0.757700	0.100800	0.808220	-0.125894
C109	C	0.828600	0.838300	0.842140	-0.134806
C110	C	0.676000	0.905800	0.896730	0.133997
C111	C	0.764100	0.793200	0.876380	0.061130
C112	C	0.471200	0.074310	0.488080	-0.132126
C113	C	0.334700	0.025150	0.494150	-0.063111
C114	C	0.642400	0.048800	0.493640	-0.097722
C115	C	0.429900	0.153390	0.476070	0.691190
C116	C	0.807600	0.094060	0.486860	0.646875
C117	C	0.041500	0.344110	0.526380	0.646875
C118	C	0.023700	0.424540	0.511380	-0.100668
C119	C	0.248900	0.409340	0.442170	0.647116
C120	C	0.111700	0.453670	0.471010	-0.099696
C121	C	0.914300	0.471690	0.539460	-0.067849
C122	C	0.185700	0.719800	0.604310	0.118709
C123	C	0.285300	0.609200	0.614260	0.050232
C124	C	0.145400	0.617300	0.643380	-0.135678
C125	C	0.928900	0.720690	0.659510	0.110412
C126	C	0.827300	0.766900	0.632410	-0.121314
C127	C	0.680500	0.799000	0.653360	-0.125894
C128	C	0.632400	0.785400	0.702230	0.132274
C129	C	0.734300	0.737500	0.728620	-0.125894
C130	C	0.882300	0.705500	0.707470	-0.121314
C131	C	0.393500	0.787400	0.763460	0.132274
C132	C	0.347300	0.713700	0.760420	-0.125894
C133	C	0.266000	0.681500	0.800260	-0.121314
C134	C	0.231000	0.725600	0.843230	0.110412
C135	C	0.273300	0.800400	0.846460	-0.121314
C136	C	0.355700	0.831700	0.806710	-0.125894
C137	C	0.155100	0.719600	0.933350	0.118709
C138	C	0.056100	0.626800	0.884350	-0.135678
C139	C	0.006400	0.617400	0.931730	0.050232
C140	C	0.427000	0.890200	0.707140	0.132274
C141	C	0.540100	0.950000	0.704480	-0.125894
C142	C	0.488100	0.016100	0.684640	-0.121314
C143	C	0.320700	0.023400	0.668370	0.110412
C144	C	0.205100	0.966700	0.672590	-0.121314
C145	C	0.257700	0.899200	0.691780	-0.125894
C146	C	0.328600	0.161700	0.657860	-0.134806
C147	C	0.176000	0.094200	0.603270	0.133997
C148	C	0.264100	0.206800	0.623620	0.061130
N1	N	0.015200	0.820640	0.223840	-0.100710
N2	N	0.188800	0.673760	0.089540	-0.379661
N3	N	0.419100	0.687870	0.137250	0.042908
N4	N	0.349900	0.692070	0.385080	0.042908
N5	N	0.429400	0.675290	0.462630	-0.379661
N6	N	0.227900	0.090780	0.144930	0.042623
N7	N	0.332000	0.164480	0.089010	-0.378763
N8	N	0.515200	0.179360	0.276160	-0.100710
N9	N	0.688800	0.326240	0.410460	-0.379661
N10	N	0.919100	0.312130	0.362750	0.042908
N11	N	0.849900	0.307930	0.114920	0.042908
N12	N	0.929400	0.324710	0.037370	-0.379661
N13	N	0.727900	0.909220	0.355070	0.042623
N14	N	0.832000	0.835520	0.410990	-0.378763
N15	N	0.984800	0.179360	0.776160	-0.100710
N16	N	0.811200	0.326240	0.910460	-0.379661
N17	N	0.580900	0.312130	0.862750	0.042908
N18	N	0.650100	0.307930	0.614920	0.042908
N19	N	0.570600	0.324710	0.537370	-0.379661
N20	N	0.772100	0.909220	0.855070	0.042623
N21	N	0.668000	0.835520	0.910990	-0.378763
N22	N	0.484800	0.820640	0.723840	-0.100710
N23	N	0.311200	0.673760	0.589540	-0.379661
N24	N	0.080900	0.687870	0.637250	0.042908
N25	N	0.150100	0.692070	0.885080	0.042908
N26	N	0.070600	0.675290	0.962630	-0.379661
N27	N	0.272100	0.090780	0.644930	0.042623
N28	N	0.168000	0.164480	0.589010	-0.378763
O1	O	0.220600	0.177660	0.980410	-0.606098
O2	O	0.946100	0.192700	0.961020	-0.594043
O3	O	0.611800	0.084650	0.947940	-0.601954
O4	O	0.644000	0.134690	0.025090	-0.617296
O5	O	0.501100	0.290900	0.995010	-0.617296
O6	O	0.412700	0.332900	0.069240	-0.601954
O7	O	0.187300	0.357190	0.965640	-0.611212
O8	O	0.205800	0.426520	0.900540	-0.601842
O9	O	0.720600	0.822340	0.519590	-0.606098
O10	O	0.446100	0.807300	0.538980	-0.594043
O11	O	0.111800	0.915350	0.552060	-0.601954
O12	O	0.144000	0.865310	0.474910	-0.617296
O13	O	0.001100	0.709100	0.504990	-0.617296
O14	O	0.912700	0.667100	0.430760	-0.601954
O15	O	0.687300	0.642810	0.534360	-0.611212
O16	O	0.705800	0.573480	0.599460	-0.601842
O17	O	0.779400	0.822340	0.019590	-0.606098
O18	O	0.053900	0.807300	0.038980	-0.594043
O19	O	0.388200	0.915350	0.052060	-0.601954
O20	O	0.356000	0.865310	0.974910	-0.617296
O21	O	0.498900	0.709100	0.004990	-0.617296
O22	O	0.587300	0.667100	0.930760	-0.601954
O23	O	0.812700	0.642810	0.034360	-0.611212
O24	O	0.794200	0.573480	0.099460	-0.601842
O25	O	0.279400	0.177660	0.480410	-0.606098
O26	O	0.553900	0.192700	0.461020	-0.594043
O27	O	0.888200	0.084650	0.447940	-0.601954
O28	O	0.856000	0.134690	0.525090	-0.617296
O29	O	0.998900	0.290900	0.495010	-0.617296
O30	O	0.087300	0.332900	0.569240	-0.601954
O31	O	0.312700	0.357190	0.465640	-0.611212
O32	O	0.294200	0.426520	0.400540	-0.601842
