data_IDUDIW_clean_PM
_symmetry_space_group_name_H-M	'P1'
_cell_length_a	10.908000
_cell_length_b	12.434000
_cell_length_c	14.354000
_cell_angle_alpha	90.000000
_cell_angle_beta	107.495000
_cell_angle_gamma	90.000000
_symmetry_Int_Tables_number 1

loop_
_symmetry_equiv_pos_as_xyz
'x,y,z'

loop_
_atom_site_label
_atom_site_type_symbol
_atom_site_fract_x
_atom_site_fract_y
_atom_site_fract_z
_atom_site_charge
Cu1	Cu	0.901140	0.932810	0.975220	0.849687
Cu2	Cu	0.098860	0.432810	0.524780	0.849687
Cu3	Cu	0.098860	0.067190	0.024780	0.849687
Cu4	Cu	0.901140	0.567190	0.475220	0.849687
H1	H	0.883900	0.799100	0.449100	0.053228
H2	H	0.528400	0.917400	0.347900	0.066834
H3	H	0.582700	0.600200	0.401800	0.090262
H4	H	0.361200	0.859400	0.227900	0.111075
H5	H	0.030100	0.737500	0.250800	0.105714
H6	H	0.369700	0.627800	0.425700	0.111075
H7	H	0.116100	0.299100	0.050900	0.053228
H8	H	0.471600	0.417400	0.152100	0.066834
H9	H	0.417300	0.100200	0.098200	0.090262
H10	H	0.638800	0.359400	0.272100	0.111075
H11	H	0.969900	0.237500	0.249200	0.105714
H12	H	0.630300	0.127800	0.074300	0.111075
H13	H	0.116100	0.200900	0.550900	0.053228
H14	H	0.471600	0.082600	0.652100	0.066834
H15	H	0.417300	0.399800	0.598200	0.090262
H16	H	0.638800	0.140600	0.772100	0.111075
H17	H	0.969900	0.262500	0.749200	0.105714
H18	H	0.630300	0.372200	0.574300	0.111075
H19	H	0.883900	0.700900	0.949100	0.053228
H20	H	0.528400	0.582600	0.847900	0.066834
H21	H	0.582700	0.899800	0.901800	0.090262
H22	H	0.361200	0.640600	0.727900	0.111075
H23	H	0.030100	0.762500	0.750800	0.105714
H24	H	0.369700	0.872200	0.925700	0.111075
C1	C	0.795500	0.788200	0.428800	0.335106
C2	C	0.583000	0.859000	0.368800	0.225759
C3	C	0.531000	0.756000	0.369700	-0.125158
C4	C	0.615300	0.669200	0.400700	0.179493
C5	C	0.387600	0.744600	0.332700	0.076084
C6	C	0.318300	0.812400	0.257700	-0.087762
C7	C	0.184300	0.809100	0.228000	-0.124412
C8	C	0.119400	0.739100	0.271200	0.002172
C9	C	0.188400	0.670800	0.345500	-0.124412
C10	C	0.323500	0.673500	0.376300	-0.087762
C11	C	0.113800	0.880700	0.143900	0.650944
C12	C	0.119300	0.602700	0.399900	0.650944
C13	C	0.204500	0.288200	0.071200	0.335106
C14	C	0.417000	0.359000	0.131200	0.225759
C15	C	0.469000	0.256000	0.130300	-0.125158
C16	C	0.384700	0.169200	0.099300	0.179493
C17	C	0.612400	0.244600	0.167300	0.076084
C18	C	0.681700	0.312400	0.242300	-0.087762
C19	C	0.815700	0.309100	0.272000	-0.124412
C20	C	0.880600	0.239100	0.228800	0.002172
C21	C	0.811600	0.170800	0.154500	-0.124412
C22	C	0.676500	0.173500	0.123700	-0.087762
C23	C	0.886200	0.380700	0.356100	0.650944
C24	C	0.880700	0.102700	0.100100	0.650944
C25	C	0.204500	0.211800	0.571200	0.335106
C26	C	0.417000	0.141000	0.631200	0.225759
C27	C	0.469000	0.244000	0.630300	-0.125158
C28	C	0.384700	0.330800	0.599300	0.179493
C29	C	0.612400	0.255400	0.667300	0.076084
C30	C	0.681700	0.187600	0.742300	-0.087762
C31	C	0.815700	0.190900	0.772000	-0.124412
C32	C	0.880600	0.260900	0.728800	0.002172
C33	C	0.811600	0.329200	0.654500	-0.124412
C34	C	0.676500	0.326500	0.623700	-0.087762
C35	C	0.886200	0.119300	0.856100	0.650944
C36	C	0.880700	0.397300	0.600100	0.650944
C37	C	0.795500	0.711800	0.928800	0.335106
C38	C	0.583000	0.641000	0.868800	0.225759
C39	C	0.531000	0.744000	0.869700	-0.125158
C40	C	0.615300	0.830800	0.900700	0.179493
C41	C	0.387600	0.755400	0.832700	0.076084
C42	C	0.318300	0.687600	0.757700	-0.087762
C43	C	0.184300	0.690900	0.728000	-0.124412
C44	C	0.119400	0.760900	0.771200	0.002172
C45	C	0.188400	0.829200	0.845500	-0.124412
C46	C	0.323500	0.826500	0.876300	-0.087762
C47	C	0.113800	0.619300	0.643900	0.650944
C48	C	0.119300	0.897300	0.899900	0.650944
N1	N	0.747100	0.685800	0.429700	-0.349444
N2	N	0.714000	0.874600	0.398300	-0.437929
N3	N	0.252900	0.185800	0.070300	-0.349444
N4	N	0.286000	0.374600	0.101700	-0.437929
N5	N	0.252900	0.314200	0.570300	-0.349444
N6	N	0.286000	0.125400	0.601700	-0.437929
N7	N	0.747100	0.814200	0.929700	-0.349444
N8	N	0.714000	0.625400	0.898300	-0.437929
O1	O	0.002900	0.849800	0.091750	-0.542874
O2	O	0.169700	0.964300	0.132420	-0.542874
O3	O	0.007600	0.634100	0.399210	-0.542874
O4	O	0.175000	0.519100	0.441500	-0.542874
O5	O	0.997100	0.349800	0.408250	-0.542874
O6	O	0.830300	0.464300	0.367580	-0.542874
O7	O	0.992400	0.134100	0.100790	-0.542874
O8	O	0.825000	0.019100	0.058500	-0.542874
O9	O	0.997100	0.150200	0.908250	-0.542874
O10	O	0.830300	0.035700	0.867580	-0.542874
O11	O	0.992400	0.365900	0.600790	-0.542874
O12	O	0.825000	0.480900	0.558500	-0.542874
O13	O	0.002900	0.650200	0.591750	-0.542874
O14	O	0.169700	0.535700	0.632420	-0.542874
O15	O	0.007600	0.865900	0.899210	-0.542874
O16	O	0.175000	0.980900	0.941500	-0.542874
