data_IQUNAJ01_clean_PM
_symmetry_space_group_name_H-M	'P1'
_cell_length_a	8.920600
_cell_length_b	9.258187
_cell_length_c	9.258187
_cell_angle_alpha	76.579326
_cell_angle_beta	61.199147
_cell_angle_gamma	61.199148
_symmetry_Int_Tables_number 1

loop_
_symmetry_equiv_pos_as_xyz
'x,y,z'

loop_
_atom_site_label
_atom_site_type_symbol
_atom_site_fract_x
_atom_site_fract_y
_atom_site_fract_z
_atom_site_charge
K1	K	0.125000	0.250000	0.250000	0.948447
K2	K	0.875000	0.750000	0.750000	0.948447
Y1	Y	0.625000	0.250000	0.250000	1.794803
Y2	Y	0.375000	0.750000	0.750000	1.794803
C1	C	0.603500	0.474300	0.478500	0.530857
C2	C	0.056300	0.025700	0.021500	0.530857
C3	C	0.577800	0.978500	0.525700	0.530857
C4	C	0.582000	0.521500	0.974300	0.530857
C5	C	0.396500	0.525700	0.521500	0.530857
C6	C	0.943700	0.974300	0.978500	0.530857
C7	C	0.422200	0.021500	0.474300	0.530857
C8	C	0.418000	0.478500	0.025700	0.530857
O1	O	0.726600	0.363500	0.372900	-0.607253
O2	O	0.687000	0.444900	0.048500	-0.609417
O3	O	0.963000	0.136500	0.127100	-0.607253
O4	O	0.680400	0.055100	0.451500	-0.609417
O5	O	0.590100	0.872900	0.636500	-0.607253
O6	O	0.631900	0.548500	0.555100	-0.609417
O7	O	0.599500	0.627100	0.863500	-0.607253
O8	O	0.235500	0.951500	0.944900	-0.609417
O9	O	0.273400	0.636500	0.627100	-0.607253
O10	O	0.313000	0.555100	0.951500	-0.609417
O11	O	0.037000	0.863500	0.872900	-0.607253
O12	O	0.319600	0.944900	0.548500	-0.609417
O13	O	0.409900	0.127100	0.363500	-0.607253
O14	O	0.368100	0.451500	0.444900	-0.609417
O15	O	0.400500	0.372900	0.136500	-0.607253
O16	O	0.764500	0.048500	0.055100	-0.609417
