data_IVETOT_clean_PM
_symmetry_space_group_name_H-M	'P1'
_cell_length_a	14.689000
_cell_length_b	14.995000
_cell_length_c	30.625000
_cell_angle_alpha	90.000000
_cell_angle_beta	90.000000
_cell_angle_gamma	90.000000
_symmetry_Int_Tables_number 1

loop_
_symmetry_equiv_pos_as_xyz
'x,y,z'

loop_
_atom_site_label
_atom_site_type_symbol
_atom_site_fract_x
_atom_site_fract_y
_atom_site_fract_z
_atom_site_charge
Cu1	Cu	0.500000	0.250000	0.250000	0.334357
Cu2	Cu	0.000000	0.750000	0.750000	0.334357
Cu3	Cu	0.500000	0.750000	0.750000	0.334357
Cu4	Cu	0.000000	0.250000	0.250000	0.334357
H1	H	0.601300	0.087800	0.226500	0.068205
H2	H	0.607300	0.978500	0.172000	0.117672
H3	H	0.386200	0.096000	0.117900	0.117672
H4	H	0.392500	0.200000	0.171300	0.068205
H5	H	0.629000	0.919700	0.110200	0.094456
H6	H	0.632600	0.812800	0.054800	0.096071
H7	H	0.371100	0.871600	0.026000	0.096071
H8	H	0.369900	0.976600	0.080800	0.094456
H9	H	0.855200	0.626300	0.788000	0.068205
H10	H	0.757900	0.623000	0.846800	0.117672
H11	H	0.840900	0.871300	0.880300	0.117672
H12	H	0.935800	0.865300	0.818800	0.068205
H13	H	0.667900	0.617700	0.896000	0.094456
H14	H	0.554000	0.624800	0.948000	0.096071
H15	H	0.637000	0.869200	0.984100	0.096071
H16	H	0.752000	0.865200	0.931600	0.094456
H17	H	0.601300	0.412200	0.273500	0.068205
H18	H	0.607300	0.521500	0.328000	0.117672
H19	H	0.386200	0.404000	0.382100	0.117672
H20	H	0.392500	0.300000	0.328700	0.068205
H21	H	0.629000	0.580300	0.389800	0.094456
H22	H	0.632600	0.687200	0.445200	0.096071
H23	H	0.371100	0.628400	0.474000	0.096071
H24	H	0.369900	0.523400	0.419200	0.094456
H25	H	0.855200	0.873700	0.712000	0.068205
H26	H	0.757900	0.877000	0.653200	0.117672
H27	H	0.840900	0.628700	0.619700	0.117672
H28	H	0.935800	0.634700	0.681200	0.068205
H29	H	0.667900	0.882300	0.604000	0.094456
H30	H	0.554000	0.875200	0.552000	0.096071
H31	H	0.637000	0.630800	0.515900	0.096071
H32	H	0.752000	0.634800	0.568400	0.094456
H33	H	0.398700	0.412200	0.226500	0.068205
H34	H	0.392700	0.521500	0.172000	0.117672
H35	H	0.613800	0.404000	0.117900	0.117672
H36	H	0.607500	0.300000	0.171300	0.068205
H37	H	0.371000	0.580300	0.110200	0.094456
H38	H	0.367400	0.687200	0.054800	0.096071
H39	H	0.628900	0.628400	0.026000	0.096071
H40	H	0.630100	0.523400	0.080800	0.094456
H41	H	0.144800	0.873700	0.788000	0.068205
H42	H	0.242100	0.877000	0.846800	0.117672
H43	H	0.159100	0.628700	0.880300	0.117672
H44	H	0.064200	0.634700	0.818800	0.068205
H45	H	0.332100	0.882300	0.896000	0.094456
H46	H	0.446000	0.875200	0.948000	0.096071
H47	H	0.363000	0.630800	0.984100	0.096071
H48	H	0.248000	0.634800	0.931600	0.094456
H49	H	0.398700	0.087800	0.273500	0.068205
H50	H	0.392700	0.978500	0.328000	0.117672
H51	H	0.613800	0.096000	0.382100	0.117672
H52	H	0.607500	0.200000	0.328700	0.068205
H53	H	0.371000	0.919700	0.389800	0.094456
H54	H	0.367400	0.812800	0.445200	0.096071
H55	H	0.628900	0.871600	0.474000	0.096071
H56	H	0.630100	0.976600	0.419200	0.094456
H57	H	0.144800	0.626300	0.712000	0.068205
H58	H	0.242100	0.623000	0.653200	0.117672
H59	H	0.159100	0.871300	0.619700	0.117672
H60	H	0.064200	0.865300	0.681200	0.068205
H61	H	0.332100	0.617700	0.604000	0.094456
H62	H	0.446000	0.624800	0.552000	0.096071
H63	H	0.363000	0.869200	0.515900	0.096071
H64	H	0.248000	0.865200	0.568400	0.094456
H65	H	0.398700	0.912200	0.773500	0.068205
H66	H	0.392700	0.021500	0.828000	0.117672
H67	H	0.613800	0.904000	0.882100	0.117672
H68	H	0.607500	0.800000	0.828700	0.068205
H69	H	0.371000	0.080300	0.889800	0.094456
H70	H	0.367400	0.187200	0.945200	0.096071
H71	H	0.628900	0.128400	0.974000	0.096071
H72	H	0.630100	0.023400	0.919200	0.094456
H73	H	0.144800	0.373700	0.212000	0.068205
H74	H	0.242100	0.377000	0.153200	0.117672
H75	H	0.159100	0.128700	0.119700	0.117672
H76	H	0.064200	0.134700	0.181200	0.068205
H77	H	0.332100	0.382300	0.104000	0.094456
H78	H	0.446000	0.375200	0.052000	0.096071
H79	H	0.363000	0.130800	0.015900	0.096071
H80	H	0.248000	0.134800	0.068400	0.094456
H81	H	0.398700	0.587800	0.726500	0.068205
H82	H	0.392700	0.478500	0.672000	0.117672
H83	H	0.613800	0.596000	0.617900	0.117672
H84	H	0.607500	0.700000	0.671300	0.068205
H85	H	0.371000	0.419700	0.610200	0.094456
H86	H	0.367400	0.312800	0.554800	0.096071
H87	H	0.628900	0.371600	0.526000	0.096071
H88	H	0.630100	0.476600	0.580800	0.094456
H89	H	0.144800	0.126300	0.288000	0.068205
H90	H	0.242100	0.123000	0.346800	0.117672
H91	H	0.159100	0.371300	0.380300	0.117672
H92	H	0.064200	0.365300	0.318800	0.068205
H93	H	0.332100	0.117700	0.396000	0.094456
H94	H	0.446000	0.124800	0.448000	0.096071
H95	H	0.363000	0.369200	0.484100	0.096071
H96	H	0.248000	0.365200	0.431600	0.094456
H97	H	0.601300	0.587800	0.773500	0.068205
H98	H	0.607300	0.478500	0.828000	0.117672
H99	H	0.386200	0.596000	0.882100	0.117672
H100	H	0.392500	0.700000	0.828700	0.068205
H101	H	0.629000	0.419700	0.889800	0.094456
H102	H	0.632600	0.312800	0.945200	0.096071
H103	H	0.371100	0.371600	0.974000	0.096071
H104	H	0.369900	0.476600	0.919200	0.094456
H105	H	0.855200	0.126300	0.212000	0.068205
H106	H	0.757900	0.123000	0.153200	0.117672
H107	H	0.840900	0.371300	0.119700	0.117672
H108	H	0.935800	0.365300	0.181200	0.068205
H109	H	0.667900	0.117700	0.104000	0.094456
H110	H	0.554000	0.124800	0.052000	0.096071
H111	H	0.637000	0.369200	0.015900	0.096071
H112	H	0.752000	0.365200	0.068400	0.094456
H113	H	0.601300	0.912200	0.726500	0.068205
H114	H	0.607300	0.021500	0.672000	0.117672
H115	H	0.386200	0.904000	0.617900	0.117672
H116	H	0.392500	0.800000	0.671300	0.068205
H117	H	0.629000	0.080300	0.610200	0.094456
H118	H	0.632600	0.187200	0.554800	0.096071
H119	H	0.371100	0.128400	0.526000	0.096071
H120	H	0.369900	0.023400	0.580800	0.094456
H121	H	0.855200	0.373700	0.288000	0.068205
H122	H	0.757900	0.377000	0.346800	0.117672
H123	H	0.840900	0.128700	0.380300	0.117672
H124	H	0.935800	0.134700	0.318800	0.068205
H125	H	0.667900	0.382300	0.396000	0.094456
H126	H	0.554000	0.375200	0.448000	0.096071
H127	H	0.637000	0.130800	0.484100	0.096071
H128	H	0.752000	0.134800	0.431600	0.094456
C1	C	0.558200	0.089500	0.203430	0.135329
C2	C	0.562200	0.023800	0.171150	-0.216437
C3	C	0.496700	0.026900	0.137140	0.082593
C4	C	0.433100	0.092900	0.139230	-0.216437
C5	C	0.436700	0.153800	0.171510	0.135329
C6	C	0.496100	0.959300	0.101820	0.018162
C7	C	0.576000	0.909500	0.093080	-0.121671
C8	C	0.578500	0.845900	0.059940	-0.134427
C9	C	0.501400	0.830700	0.034140	0.042523
C10	C	0.424500	0.880500	0.042970	-0.134427
C11	C	0.424000	0.943200	0.076070	-0.121671
C12	C	0.852300	0.676400	0.807000	0.135329
C13	C	0.794200	0.674400	0.841800	-0.216437
C14	C	0.787700	0.745700	0.869680	0.082593
C15	C	0.842100	0.820300	0.861900	-0.216437
C16	C	0.898800	0.814900	0.825000	0.135329
C17	C	0.719400	0.740200	0.907190	0.018162
C18	C	0.661600	0.669800	0.913430	-0.121671
C19	C	0.594500	0.673800	0.944730	-0.134427
C20	C	0.584600	0.747400	0.971610	0.042523
C21	C	0.643300	0.818000	0.966020	-0.134427
C22	C	0.711300	0.816300	0.934690	-0.121671
C23	C	0.558200	0.410500	0.296570	0.135329
C24	C	0.562200	0.476200	0.328850	-0.216437
C25	C	0.496700	0.473100	0.362860	0.082593
C26	C	0.433100	0.407100	0.360770	-0.216437
C27	C	0.436700	0.346200	0.328490	0.135329
C28	C	0.496100	0.540700	0.398180	0.018162
C29	C	0.576000	0.590500	0.406920	-0.121671
C30	C	0.578500	0.654100	0.440060	-0.134427
C31	C	0.501400	0.669300	0.465860	0.042523
C32	C	0.424500	0.619500	0.457030	-0.134427
C33	C	0.424000	0.556800	0.423930	-0.121671
C34	C	0.852300	0.823600	0.693000	0.135329
C35	C	0.794200	0.825600	0.658200	-0.216437
C36	C	0.787700	0.754300	0.630320	0.082593
C37	C	0.842100	0.679700	0.638100	-0.216437
C38	C	0.898800	0.685100	0.675000	0.135329
C39	C	0.719400	0.759800	0.592810	0.018162
C40	C	0.661600	0.830200	0.586570	-0.121671
C41	C	0.594500	0.826200	0.555270	-0.134427
C42	C	0.584600	0.752600	0.528390	0.042523
C43	C	0.643300	0.682000	0.533980	-0.134427
C44	C	0.711300	0.683700	0.565310	-0.121671
C45	C	0.441800	0.410500	0.203430	0.135329
C46	C	0.437800	0.476200	0.171150	-0.216437
C47	C	0.503300	0.473100	0.137140	0.082593
C48	C	0.566900	0.407100	0.139230	-0.216437
C49	C	0.563300	0.346200	0.171510	0.135329
C50	C	0.503900	0.540700	0.101820	0.018162
C51	C	0.424000	0.590500	0.093080	-0.121671
C52	C	0.421500	0.654100	0.059940	-0.134427
C53	C	0.498600	0.669300	0.034140	0.042523
C54	C	0.575500	0.619500	0.042970	-0.134427
C55	C	0.576000	0.556800	0.076070	-0.121671
C56	C	0.147700	0.823600	0.807000	0.135329
C57	C	0.205800	0.825600	0.841800	-0.216437
C58	C	0.212300	0.754300	0.869680	0.082593
C59	C	0.157900	0.679700	0.861900	-0.216437
C60	C	0.101200	0.685100	0.825000	0.135329
C61	C	0.280600	0.759800	0.907190	0.018162
C62	C	0.338400	0.830200	0.913430	-0.121671
C63	C	0.405500	0.826200	0.944730	-0.134427
C64	C	0.415400	0.752600	0.971610	0.042523
C65	C	0.356700	0.682000	0.966020	-0.134427
C66	C	0.288700	0.683700	0.934690	-0.121671
C67	C	0.441800	0.089500	0.296570	0.135329
C68	C	0.437800	0.023800	0.328850	-0.216437
C69	C	0.503300	0.026900	0.362860	0.082593
C70	C	0.566900	0.092900	0.360770	-0.216437
C71	C	0.563300	0.153800	0.328490	0.135329
C72	C	0.503900	0.959300	0.398180	0.018162
C73	C	0.424000	0.909500	0.406920	-0.121671
C74	C	0.421500	0.845900	0.440060	-0.134427
C75	C	0.498600	0.830700	0.465860	0.042523
C76	C	0.575500	0.880500	0.457030	-0.134427
C77	C	0.576000	0.943200	0.423930	-0.121671
C78	C	0.147700	0.676400	0.693000	0.135329
C79	C	0.205800	0.674400	0.658200	-0.216437
C80	C	0.212300	0.745700	0.630320	0.082593
C81	C	0.157900	0.820300	0.638100	-0.216437
C82	C	0.101200	0.814900	0.675000	0.135329
C83	C	0.280600	0.740200	0.592810	0.018162
C84	C	0.338400	0.669800	0.586570	-0.121671
C85	C	0.405500	0.673800	0.555270	-0.134427
C86	C	0.415400	0.747400	0.528390	0.042523
C87	C	0.356700	0.818000	0.533980	-0.134427
C88	C	0.288700	0.816300	0.565310	-0.121671
C89	C	0.500000	0.750000	0.003030	-0.026241
C90	C	0.500000	0.750000	0.496970	-0.026241
C91	C	0.441800	0.910500	0.796570	0.135329
C92	C	0.437800	0.976200	0.828850	-0.216437
C93	C	0.503300	0.973100	0.862860	0.082593
C94	C	0.566900	0.907100	0.860770	-0.216437
C95	C	0.563300	0.846200	0.828490	0.135329
C96	C	0.503900	0.040700	0.898180	0.018162
C97	C	0.424000	0.090500	0.906920	-0.121671
C98	C	0.421500	0.154100	0.940060	-0.134427
C99	C	0.498600	0.169300	0.965860	0.042523
C100	C	0.575500	0.119500	0.957030	-0.134427
C101	C	0.576000	0.056800	0.923930	-0.121671
C102	C	0.147700	0.323600	0.193000	0.135329
C103	C	0.205800	0.325600	0.158200	-0.216437
C104	C	0.212300	0.254300	0.130320	0.082593
C105	C	0.157900	0.179700	0.138100	-0.216437
C106	C	0.101200	0.185100	0.175000	0.135329
C107	C	0.280600	0.259800	0.092810	0.018162
C108	C	0.338400	0.330200	0.086570	-0.121671
C109	C	0.405500	0.326200	0.055270	-0.134427
C110	C	0.415400	0.252600	0.028390	0.042523
C111	C	0.356700	0.182000	0.033980	-0.134427
C112	C	0.288700	0.183700	0.065310	-0.121671
C113	C	0.441800	0.589500	0.703430	0.135329
C114	C	0.437800	0.523800	0.671150	-0.216437
C115	C	0.503300	0.526900	0.637140	0.082593
C116	C	0.566900	0.592900	0.639230	-0.216437
C117	C	0.563300	0.653800	0.671510	0.135329
C118	C	0.503900	0.459300	0.601820	0.018162
C119	C	0.424000	0.409500	0.593080	-0.121671
C120	C	0.421500	0.345900	0.559940	-0.134427
C121	C	0.498600	0.330700	0.534140	0.042523
C122	C	0.575500	0.380500	0.542970	-0.134427
C123	C	0.576000	0.443200	0.576070	-0.121671
C124	C	0.147700	0.176400	0.307000	0.135329
C125	C	0.205800	0.174400	0.341800	-0.216437
C126	C	0.212300	0.245700	0.369680	0.082593
C127	C	0.157900	0.320300	0.361900	-0.216437
C128	C	0.101200	0.314900	0.325000	0.135329
C129	C	0.280600	0.240200	0.407190	0.018162
C130	C	0.338400	0.169800	0.413430	-0.121671
C131	C	0.405500	0.173800	0.444730	-0.134427
C132	C	0.415400	0.247400	0.471610	0.042523
C133	C	0.356700	0.318000	0.466020	-0.134427
C134	C	0.288700	0.316300	0.434690	-0.121671
C135	C	0.558200	0.589500	0.796570	0.135329
C136	C	0.562200	0.523800	0.828850	-0.216437
C137	C	0.496700	0.526900	0.862860	0.082593
C138	C	0.433100	0.592900	0.860770	-0.216437
C139	C	0.436700	0.653800	0.828490	0.135329
C140	C	0.496100	0.459300	0.898180	0.018162
C141	C	0.576000	0.409500	0.906920	-0.121671
C142	C	0.578500	0.345900	0.940060	-0.134427
C143	C	0.501400	0.330700	0.965860	0.042523
C144	C	0.424500	0.380500	0.957030	-0.134427
C145	C	0.424000	0.443200	0.923930	-0.121671
C146	C	0.852300	0.176400	0.193000	0.135329
C147	C	0.794200	0.174400	0.158200	-0.216437
C148	C	0.787700	0.245700	0.130320	0.082593
C149	C	0.842100	0.320300	0.138100	-0.216437
C150	C	0.898800	0.314900	0.175000	0.135329
C151	C	0.719400	0.240200	0.092810	0.018162
C152	C	0.661600	0.169800	0.086570	-0.121671
C153	C	0.594500	0.173800	0.055270	-0.134427
C154	C	0.584600	0.247400	0.028390	0.042523
C155	C	0.643300	0.318000	0.033980	-0.134427
C156	C	0.711300	0.316300	0.065310	-0.121671
C157	C	0.558200	0.910500	0.703430	0.135329
C158	C	0.562200	0.976200	0.671150	-0.216437
C159	C	0.496700	0.973100	0.637140	0.082593
C160	C	0.433100	0.907100	0.639230	-0.216437
C161	C	0.436700	0.846200	0.671510	0.135329
C162	C	0.496100	0.040700	0.601820	0.018162
C163	C	0.576000	0.090500	0.593080	-0.121671
C164	C	0.578500	0.154100	0.559940	-0.134427
C165	C	0.501400	0.169300	0.534140	0.042523
C166	C	0.424500	0.119500	0.542970	-0.134427
C167	C	0.424000	0.056800	0.576070	-0.121671
C168	C	0.852300	0.323600	0.307000	0.135329
C169	C	0.794200	0.325600	0.341800	-0.216437
C170	C	0.787700	0.254300	0.369680	0.082593
C171	C	0.842100	0.179700	0.361900	-0.216437
C172	C	0.898800	0.185100	0.325000	0.135329
C173	C	0.719400	0.259800	0.407190	0.018162
C174	C	0.661600	0.330200	0.413430	-0.121671
C175	C	0.594500	0.326200	0.444730	-0.134427
C176	C	0.584600	0.252600	0.471610	0.042523
C177	C	0.643300	0.182000	0.466020	-0.134427
C178	C	0.711300	0.183700	0.434690	-0.121671
C179	C	0.500000	0.250000	0.996970	-0.026241
C180	C	0.500000	0.250000	0.503030	-0.026241
N1	N	0.496600	0.154000	0.203150	-0.298703
N2	N	0.905400	0.747700	0.798810	-0.298703
N3	N	0.496600	0.346000	0.296850	-0.298703
N4	N	0.905400	0.752300	0.701190	-0.298703
N5	N	0.503400	0.346000	0.203150	-0.298703
N6	N	0.094600	0.752300	0.798810	-0.298703
N7	N	0.503400	0.154000	0.296850	-0.298703
N8	N	0.094600	0.747700	0.701190	-0.298703
N9	N	0.503400	0.846000	0.796850	-0.298703
N10	N	0.094600	0.252300	0.201190	-0.298703
N11	N	0.503400	0.654000	0.703150	-0.298703
N12	N	0.094600	0.247700	0.298810	-0.298703
N13	N	0.496600	0.654000	0.796850	-0.298703
N14	N	0.905400	0.247700	0.201190	-0.298703
N15	N	0.496600	0.846000	0.703150	-0.298703
N16	N	0.905400	0.252300	0.298810	-0.298703
