data_IWELIG01_clean_PM
_symmetry_space_group_name_H-M	'P1'
_cell_length_a	8.449500
_cell_length_b	15.260900
_cell_length_c	15.260900
_cell_angle_alpha	85.604701
_cell_angle_beta	73.928501
_cell_angle_gamma	73.928597
_symmetry_Int_Tables_number 1

loop_
_symmetry_equiv_pos_as_xyz
'x,y,z'

loop_
_atom_site_label
_atom_site_type_symbol
_atom_site_fract_x
_atom_site_fract_y
_atom_site_fract_z
_atom_site_charge
Co1	Co	0.904040	0.960340	0.949830	1.054184
Co2	Co	0.314220	0.539660	0.550170	1.054184
Co3	Co	0.864390	0.449820	0.039660	1.054184
Co4	Co	0.853870	0.050180	0.460340	1.054184
Co5	Co	0.095960	0.039660	0.050170	1.054184
Co6	Co	0.685780	0.460340	0.449830	1.054184
Co7	Co	0.135610	0.550180	0.960340	1.054184
Co8	Co	0.146130	0.949820	0.539660	1.054184
Co9	Co	0.500000	0.000000	0.000000	1.101835
Co10	Co	0.000000	0.500000	0.500000	1.101835
Co11	Co	0.500000	0.500000	0.000000	1.101835
Co12	Co	0.500000	0.000000	0.500000	1.101835
H1	H	0.567200	0.025000	0.807800	0.291712
H2	H	0.957300	0.922500	0.747300	0.065713
H3	H	0.635900	0.023500	0.658100	0.093720
H4	H	0.900000	0.475000	0.692200	0.291712
H5	H	0.127100	0.577500	0.752700	0.065713
H6	H	0.817500	0.476500	0.841900	0.093720
H7	H	0.592200	0.307800	0.975000	0.291712
H8	H	0.879800	0.247300	0.077500	0.065713
H9	H	0.659400	0.158100	0.976500	0.093720
H10	H	0.375000	0.192200	0.525000	0.291712
H11	H	0.704600	0.252700	0.422500	0.065713
H12	H	0.294000	0.341900	0.523500	0.093720
H13	H	0.432800	0.975000	0.192200	0.291712
H14	H	0.042700	0.077500	0.252700	0.065713
H15	H	0.364100	0.976500	0.341900	0.093720
H16	H	0.100000	0.525000	0.307800	0.291712
H17	H	0.872900	0.422500	0.247300	0.065713
H18	H	0.182500	0.523500	0.158100	0.093720
H19	H	0.407800	0.692200	0.025000	0.291712
H20	H	0.120200	0.752700	0.922500	0.065713
H21	H	0.340600	0.841900	0.023500	0.093720
H22	H	0.625000	0.807800	0.475000	0.291712
H23	H	0.295400	0.747300	0.577500	0.065713
H24	H	0.706000	0.658100	0.476500	0.093720
C1	C	0.343590	0.000590	0.842430	0.480230
C2	C	0.240260	0.976760	0.795320	-0.082890
C3	C	0.054820	0.939290	0.747670	0.331849
C4	C	0.291050	0.973220	0.699280	0.471146
C5	C	0.534460	0.010690	0.690990	0.268015
C6	C	0.686610	0.499410	0.657570	0.480230
C7	C	0.512340	0.523240	0.704680	-0.082890
C8	C	0.241780	0.560710	0.752330	0.331849
C9	C	0.463550	0.526780	0.800720	0.471146
C10	C	0.736140	0.489310	0.809010	0.268015
C11	C	0.344180	0.342430	0.999410	0.480230
C12	C	0.217020	0.295320	0.023240	-0.082890
C13	C	0.994110	0.247670	0.060710	0.331849
C14	C	0.264270	0.199280	0.026780	0.471146
C15	C	0.545150	0.190990	0.989310	0.268015
C16	C	0.186020	0.157570	0.500590	0.480230
C17	C	0.035580	0.204680	0.476760	-0.082890
C18	C	0.802490	0.252330	0.439290	0.331849
C19	C	0.990330	0.300720	0.473220	0.471146
C20	C	0.225450	0.309010	0.510690	0.268015
C21	C	0.656410	0.999410	0.157570	0.480230
C22	C	0.759740	0.023240	0.204680	-0.082890
C23	C	0.945180	0.060710	0.252330	0.331849
C24	C	0.708950	0.026780	0.300720	0.471146
C25	C	0.465540	0.989310	0.309010	0.268015
C26	C	0.313390	0.500590	0.342430	0.480230
C27	C	0.487660	0.476760	0.295320	-0.082890
C28	C	0.758220	0.439290	0.247670	0.331849
C29	C	0.536450	0.473220	0.199280	0.471146
C30	C	0.263860	0.510690	0.190990	0.268015
C31	C	0.655820	0.657570	0.000590	0.480230
C32	C	0.782980	0.704680	0.976760	-0.082890
C33	C	0.005890	0.752330	0.939290	0.331849
C34	C	0.735730	0.800720	0.973220	0.471146
C35	C	0.454850	0.809010	0.010690	0.268015
C36	C	0.813980	0.842430	0.499410	0.480230
C37	C	0.964420	0.795320	0.523240	-0.082890
C38	C	0.197510	0.747670	0.560710	0.331849
C39	C	0.009670	0.699280	0.526780	0.471146
C40	C	0.774550	0.690990	0.489310	0.268015
N1	N	0.088050	0.954460	0.824640	-0.317882
N2	N	0.172640	0.949920	0.669800	-0.500415
N3	N	0.438880	0.990770	0.645670	-0.488990
N4	N	0.494110	0.013910	0.783670	-0.313175
N5	N	0.367150	0.545540	0.675360	-0.317882
N6	N	0.292360	0.550080	0.830200	-0.500415
N7	N	0.575320	0.509230	0.854330	-0.488990
N8	N	0.791690	0.486090	0.716330	-0.313175
N9	N	0.042510	0.324640	0.045540	-0.317882
N10	N	0.122560	0.169800	0.050080	-0.500415
N11	N	0.429650	0.145670	0.009230	-0.488990
N12	N	0.508020	0.283670	0.986090	-0.313175
N13	N	0.912690	0.175360	0.454460	-0.317882
N14	N	0.842440	0.330200	0.449920	-0.500415
N15	N	0.084550	0.354330	0.490770	-0.488990
N16	N	0.277780	0.216330	0.513910	-0.313175
N17	N	0.911950	0.045540	0.175360	-0.317882
N18	N	0.827360	0.050080	0.330200	-0.500415
N19	N	0.561120	0.009230	0.354330	-0.488990
N20	N	0.505890	0.986090	0.216330	-0.313175
N21	N	0.632850	0.454460	0.324640	-0.317882
N22	N	0.707640	0.449920	0.169800	-0.500415
N23	N	0.424680	0.490770	0.145670	-0.488990
N24	N	0.208310	0.513910	0.283670	-0.313175
N25	N	0.957490	0.675360	0.954460	-0.317882
N26	N	0.877440	0.830200	0.949920	-0.500415
N27	N	0.570350	0.854330	0.990770	-0.488990
N28	N	0.491980	0.716330	0.013910	-0.313175
N29	N	0.087310	0.824640	0.545540	-0.317882
N30	N	0.157560	0.669800	0.550080	-0.500415
N31	N	0.915450	0.645670	0.509230	-0.488990
N32	N	0.722220	0.783670	0.486090	-0.313175
O1	O	0.699280	0.007360	0.894280	-0.706113
O2	O	0.319340	0.009450	0.926470	-0.543620
O3	O	0.925280	0.084230	0.973410	-0.654401
O4	O	0.100920	0.492640	0.605720	-0.706113
O5	O	0.755260	0.490550	0.573530	-0.543620
O6	O	0.482920	0.415770	0.526590	-0.654401
O7	O	0.706640	0.394280	0.992640	-0.706113
O8	O	0.328790	0.426470	0.990550	-0.543620
O9	O	0.009510	0.473410	0.915770	-0.654401
O10	O	0.593560	0.105720	0.507360	-0.706113
O11	O	0.245810	0.073530	0.509450	-0.543620
O12	O	0.898690	0.026590	0.584230	-0.654401
O13	O	0.300720	0.992640	0.105720	-0.706113
O14	O	0.680660	0.990550	0.073530	-0.543620
O15	O	0.074720	0.915770	0.026590	-0.654401
O16	O	0.899080	0.507360	0.394280	-0.706113
O17	O	0.244740	0.509450	0.426470	-0.543620
O18	O	0.517080	0.584230	0.473410	-0.654401
O19	O	0.293360	0.605720	0.007360	-0.706113
O20	O	0.671210	0.573530	0.009450	-0.543620
O21	O	0.990490	0.526590	0.084230	-0.654401
O22	O	0.406440	0.894280	0.492640	-0.706113
O23	O	0.754190	0.926470	0.490550	-0.543620
O24	O	0.101310	0.973410	0.415770	-0.654401
