data_IXUWOO_clean_PM
_symmetry_space_group_name_H-M	'P1'
_cell_length_a	15.105600
_cell_length_b	15.105600
_cell_length_c	16.136400
_cell_angle_alpha	85.648400
_cell_angle_beta	85.648400
_cell_angle_gamma	85.627200
_symmetry_Int_Tables_number 1

loop_
_symmetry_equiv_pos_as_xyz
'x,y,z'

loop_
_atom_site_label
_atom_site_type_symbol
_atom_site_fract_x
_atom_site_fract_y
_atom_site_fract_z
_atom_site_charge
Co1	Co	0.801200	0.772340	0.754730	0.591179
Co2	Co	0.227660	0.198800	0.745270	0.591179
Co3	Co	0.198800	0.227660	0.245270	0.591179
Co4	Co	0.772340	0.801200	0.254730	0.591179
H1	H	0.526900	0.075500	0.575500	0.286320
H2	H	0.614600	0.417800	0.404600	0.286320
H3	H	0.892700	0.928700	0.117800	0.104125
H4	H	0.834600	0.856200	0.017200	0.099542
H5	H	0.005500	0.961300	0.841400	0.105711
H6	H	0.042900	0.400500	0.633300	0.104125
H7	H	0.969700	0.504500	0.712400	0.099542
H8	H	0.902200	0.651600	0.507300	0.105711
H9	H	0.584600	0.331200	0.505100	0.103122
H10	H	0.341800	0.377600	0.426800	0.097873
H11	H	0.298000	0.250400	0.506700	0.098570
H12	H	0.402300	0.158700	0.575500	0.097873
H13	H	0.784800	0.981000	0.755400	0.072267
H14	H	0.698600	0.098800	0.701400	0.144915
H15	H	0.583500	0.930500	0.576000	0.144915
H16	H	0.669700	0.818500	0.634300	0.072267
H17	H	0.803900	0.623100	0.339100	0.072267
H18	H	0.738100	0.498900	0.390500	0.144915
H19	H	0.514900	0.600300	0.295500	0.144915
H20	H	0.588700	0.722700	0.245000	0.072267
H21	H	0.924500	0.473100	0.924500	0.286320
H22	H	0.582200	0.385400	0.095400	0.286320
H23	H	0.071300	0.107300	0.382200	0.104125
H24	H	0.143800	0.165400	0.482800	0.099542
H25	H	0.038700	0.994500	0.658600	0.105711
H26	H	0.599500	0.957100	0.866700	0.104125
H27	H	0.495500	0.030300	0.787600	0.099542
H28	H	0.348400	0.097800	0.992700	0.105711
H29	H	0.668800	0.415400	0.994900	0.103122
H30	H	0.622400	0.658200	0.073200	0.097873
H31	H	0.749600	0.702000	0.993300	0.098570
H32	H	0.841300	0.597700	0.924500	0.097873
H33	H	0.019000	0.215200	0.744600	0.072267
H34	H	0.901200	0.301400	0.798600	0.144915
H35	H	0.069500	0.416500	0.924000	0.144915
H36	H	0.181500	0.330300	0.865700	0.072267
H37	H	0.376900	0.196100	0.160900	0.072267
H38	H	0.501100	0.261900	0.109500	0.144915
H39	H	0.399700	0.485100	0.204500	0.144915
H40	H	0.277300	0.411300	0.255000	0.072267
H41	H	0.473100	0.924500	0.424500	0.286320
H42	H	0.385400	0.582200	0.595400	0.286320
H43	H	0.107300	0.071300	0.882200	0.104125
H44	H	0.165400	0.143800	0.982800	0.099542
H45	H	0.994500	0.038700	0.158600	0.105711
H46	H	0.957100	0.599500	0.366700	0.104125
H47	H	0.030300	0.495500	0.287600	0.099542
H48	H	0.097800	0.348400	0.492700	0.105711
H49	H	0.415400	0.668800	0.494900	0.103122
H50	H	0.658200	0.622400	0.573200	0.097873
H51	H	0.702000	0.749600	0.493300	0.098570
H52	H	0.597700	0.841300	0.424500	0.097873
H53	H	0.215200	0.019000	0.244600	0.072267
H54	H	0.301400	0.901200	0.298600	0.144915
H55	H	0.416500	0.069500	0.424000	0.144915
H56	H	0.330300	0.181500	0.365700	0.072267
H57	H	0.196100	0.376900	0.660900	0.072267
H58	H	0.261900	0.501100	0.609500	0.144915
H59	H	0.485100	0.399700	0.704500	0.144915
H60	H	0.411300	0.277300	0.755000	0.072267
H61	H	0.075500	0.526900	0.075500	0.286320
H62	H	0.417800	0.614600	0.904600	0.286320
H63	H	0.928700	0.892700	0.617800	0.104125
H64	H	0.856200	0.834600	0.517200	0.099542
H65	H	0.961300	0.005500	0.341400	0.105711
H66	H	0.400500	0.042900	0.133300	0.104125
H67	H	0.504500	0.969700	0.212400	0.099542
H68	H	0.651600	0.902200	0.007300	0.105711
H69	H	0.331200	0.584600	0.005100	0.103122
H70	H	0.377600	0.341800	0.926800	0.097873
H71	H	0.250400	0.298000	0.006700	0.098570
H72	H	0.158700	0.402300	0.075500	0.097873
H73	H	0.981000	0.784800	0.255400	0.072267
H74	H	0.098800	0.698600	0.201400	0.144915
H75	H	0.930500	0.583500	0.076000	0.144915
H76	H	0.818500	0.669700	0.134300	0.072267
H77	H	0.623100	0.803900	0.839100	0.072267
H78	H	0.498900	0.738100	0.890500	0.144915
H79	H	0.600300	0.514900	0.795500	0.144915
H80	H	0.722700	0.588700	0.745000	0.072267
C1	C	0.878300	0.853300	0.853800	0.605720
C2	C	0.914600	0.936800	0.062500	-0.144958
C3	C	0.880900	0.892900	0.002900	-0.033062
C4	C	0.916400	0.902800	0.918700	-0.107115
C5	C	0.982500	0.956100	0.896500	-0.080218
C6	C	0.018300	0.006300	0.959300	0.035187
C7	C	0.880700	0.656900	0.669400	0.605720
C8	C	0.015700	0.451300	0.607200	-0.144958
C9	C	0.971700	0.512900	0.654600	-0.033062
C10	C	0.929000	0.589400	0.616300	-0.107115
C11	C	0.931600	0.601200	0.532200	-0.080218
C12	C	0.978300	0.537900	0.481400	0.035187
C13	C	0.572600	0.183600	0.596600	0.521517
C14	C	0.491300	0.449100	0.406700	0.521517
C15	C	0.501900	0.235900	0.547900	-0.133191
C16	C	0.527100	0.313900	0.502900	-0.018006
C17	C	0.468700	0.364900	0.456200	-0.133191
C18	C	0.382800	0.342200	0.457200	-0.042569
C19	C	0.356800	0.265200	0.504400	-0.130430
C20	C	0.418500	0.211500	0.547200	-0.042569
C21	C	0.741900	0.970100	0.719800	0.192318
C22	C	0.690600	0.041600	0.687100	-0.275220
C23	C	0.627700	0.028100	0.633400	0.282618
C24	C	0.623200	0.943000	0.614200	-0.275220
C25	C	0.675200	0.876000	0.649300	0.192318
C26	C	0.744400	0.619000	0.330000	0.192318
C27	C	0.705100	0.544500	0.362200	-0.275220
C28	C	0.616600	0.537400	0.352400	0.282618
C29	C	0.574000	0.603800	0.306300	-0.275220
C30	C	0.619400	0.677200	0.275400	0.192318
C31	C	0.146700	0.121700	0.646200	0.605720
C32	C	0.063200	0.085400	0.437500	-0.144958
C33	C	0.107100	0.119100	0.497100	-0.033062
C34	C	0.097200	0.083600	0.581300	-0.107115
C35	C	0.043900	0.017500	0.603500	-0.080218
C36	C	0.993700	0.981700	0.540700	0.035187
C37	C	0.343100	0.119300	0.830600	0.605720
C38	C	0.548700	0.984300	0.892800	-0.144958
C39	C	0.487100	0.028300	0.845400	-0.033062
C40	C	0.410600	0.071000	0.883700	-0.107115
C41	C	0.398800	0.068400	0.967800	-0.080218
C42	C	0.462100	0.021700	0.018600	0.035187
C43	C	0.816400	0.427400	0.903400	0.521517
C44	C	0.550900	0.508700	0.093300	0.521517
C45	C	0.764100	0.498100	0.952100	-0.133191
C46	C	0.686100	0.472900	0.997100	-0.018006
C47	C	0.635100	0.531300	0.043800	-0.133191
C48	C	0.657800	0.617200	0.042800	-0.042569
C49	C	0.734800	0.643200	0.995600	-0.130430
C50	C	0.788500	0.581500	0.952800	-0.042569
C51	C	0.029900	0.258100	0.780200	0.192318
C52	C	0.958400	0.309400	0.812900	-0.275220
C53	C	0.971900	0.372300	0.866600	0.282618
C54	C	0.057000	0.376800	0.885800	-0.275220
C55	C	0.124000	0.324800	0.850700	0.192318
C56	C	0.381000	0.255600	0.170000	0.192318
C57	C	0.455500	0.294900	0.137800	-0.275220
C58	C	0.462600	0.383400	0.147600	0.282618
C59	C	0.396200	0.426000	0.193700	-0.275220
C60	C	0.322800	0.380600	0.224600	0.192318
C61	C	0.121700	0.146700	0.146200	0.605720
C62	C	0.085400	0.063200	0.937500	-0.144958
C63	C	0.119100	0.107100	0.997100	-0.033062
C64	C	0.083600	0.097200	0.081300	-0.107115
C65	C	0.017500	0.043900	0.103500	-0.080218
C66	C	0.981700	0.993700	0.040700	0.035187
C67	C	0.119300	0.343100	0.330600	0.605720
C68	C	0.984300	0.548700	0.392800	-0.144958
C69	C	0.028300	0.487100	0.345400	-0.033062
C70	C	0.071000	0.410600	0.383700	-0.107115
C71	C	0.068400	0.398800	0.467800	-0.080218
C72	C	0.021700	0.462100	0.518600	0.035187
C73	C	0.427400	0.816400	0.403400	0.521517
C74	C	0.508700	0.550900	0.593300	0.521517
C75	C	0.498100	0.764100	0.452100	-0.133191
C76	C	0.472900	0.686100	0.497100	-0.018006
C77	C	0.531300	0.635100	0.543800	-0.133191
C78	C	0.617200	0.657800	0.542800	-0.042569
C79	C	0.643200	0.734800	0.495600	-0.130430
C80	C	0.581500	0.788500	0.452800	-0.042569
C81	C	0.258100	0.029900	0.280200	0.192318
C82	C	0.309400	0.958400	0.312900	-0.275220
C83	C	0.372300	0.971900	0.366600	0.282618
C84	C	0.376800	0.057000	0.385800	-0.275220
C85	C	0.324800	0.124000	0.350700	0.192318
C86	C	0.255600	0.381000	0.670000	0.192318
C87	C	0.294900	0.455500	0.637800	-0.275220
C88	C	0.383400	0.462600	0.647600	0.282618
C89	C	0.426000	0.396200	0.693700	-0.275220
C90	C	0.380600	0.322800	0.724600	0.192318
C91	C	0.853300	0.878300	0.353800	0.605720
C92	C	0.936800	0.914600	0.562500	-0.144958
C93	C	0.892900	0.880900	0.502900	-0.033062
C94	C	0.902800	0.916400	0.418700	-0.107115
C95	C	0.956100	0.982500	0.396500	-0.080218
C96	C	0.006300	0.018300	0.459300	0.035187
C97	C	0.656900	0.880700	0.169400	0.605720
C98	C	0.451300	0.015700	0.107200	-0.144958
C99	C	0.512900	0.971700	0.154600	-0.033062
C100	C	0.589400	0.929000	0.116300	-0.107115
C101	C	0.601200	0.931600	0.032200	-0.080218
C102	C	0.537900	0.978300	0.981400	0.035187
C103	C	0.183600	0.572600	0.096600	0.521517
C104	C	0.449100	0.491300	0.906700	0.521517
C105	C	0.235900	0.501900	0.047900	-0.133191
C106	C	0.313900	0.527100	0.002900	-0.018006
C107	C	0.364900	0.468700	0.956200	-0.133191
C108	C	0.342200	0.382800	0.957200	-0.042569
C109	C	0.265200	0.356800	0.004400	-0.130430
C110	C	0.211500	0.418500	0.047200	-0.042569
C111	C	0.970100	0.741900	0.219800	0.192318
C112	C	0.041600	0.690600	0.187100	-0.275220
C113	C	0.028100	0.627700	0.133400	0.282618
C114	C	0.943000	0.623200	0.114200	-0.275220
C115	C	0.876000	0.675200	0.149300	0.192318
C116	C	0.619000	0.744400	0.830000	0.192318
C117	C	0.544500	0.705100	0.862200	-0.275220
C118	C	0.537400	0.616600	0.852400	0.282618
C119	C	0.603800	0.574000	0.806300	-0.275220
C120	C	0.677200	0.619400	0.775400	0.192318
N1	N	0.733900	0.887500	0.703900	-0.309983
N2	N	0.570400	0.094200	0.599000	-0.423890
N3	N	0.703600	0.686000	0.286700	-0.309983
N4	N	0.578100	0.461900	0.390100	-0.423890
N5	N	0.112500	0.266100	0.796100	-0.309983
N6	N	0.905800	0.429600	0.901000	-0.423890
N7	N	0.314000	0.296400	0.213300	-0.309983
N8	N	0.538100	0.421900	0.109900	-0.423890
N9	N	0.266100	0.112500	0.296100	-0.309983
N10	N	0.429600	0.905800	0.401000	-0.423890
N11	N	0.296400	0.314000	0.713300	-0.309983
N12	N	0.421900	0.538100	0.609900	-0.423890
N13	N	0.887500	0.733900	0.203900	-0.309983
N14	N	0.094200	0.570400	0.099000	-0.423890
N15	N	0.686000	0.703600	0.786700	-0.309983
N16	N	0.461900	0.578100	0.890100	-0.423890
O1	O	0.913500	0.849300	0.782000	-0.481749
O2	O	0.806600	0.816400	0.873800	-0.481749
O3	O	0.886700	0.650500	0.747400	-0.481749
O4	O	0.833000	0.719200	0.637700	-0.481749
O5	O	0.627600	0.220800	0.632600	-0.490905
O6	O	0.433300	0.503700	0.382600	-0.490905
O7	O	0.150700	0.086500	0.718000	-0.481749
O8	O	0.183600	0.193400	0.626200	-0.481749
O9	O	0.349500	0.113300	0.752600	-0.481749
O10	O	0.280800	0.167000	0.862300	-0.481749
O11	O	0.779200	0.372400	0.867400	-0.490905
O12	O	0.496300	0.566700	0.117400	-0.490905
O13	O	0.086500	0.150700	0.218000	-0.481749
O14	O	0.193400	0.183600	0.126200	-0.481749
O15	O	0.113300	0.349500	0.252600	-0.481749
O16	O	0.167000	0.280800	0.362300	-0.481749
O17	O	0.372400	0.779200	0.367400	-0.490905
O18	O	0.566700	0.496300	0.617400	-0.490905
O19	O	0.849300	0.913500	0.282000	-0.481749
O20	O	0.816400	0.806600	0.373800	-0.481749
O21	O	0.650500	0.886700	0.247400	-0.481749
O22	O	0.719200	0.833000	0.137700	-0.481749
O23	O	0.220800	0.627600	0.132600	-0.490905
O24	O	0.503700	0.433300	0.882600	-0.490905
