data_JAHNEM_clean_PM
_symmetry_space_group_name_H-M	'P1'
_cell_length_a	8.153000
_cell_length_b	13.680200
_cell_length_c	13.680200
_cell_angle_alpha	119.999999
_cell_angle_beta	90.000000
_cell_angle_gamma	90.000000
_symmetry_Int_Tables_number 1

loop_
_symmetry_equiv_pos_as_xyz
'x,y,z'

loop_
_atom_site_label
_atom_site_type_symbol
_atom_site_fract_x
_atom_site_fract_y
_atom_site_fract_z
_atom_site_charge
Mn1	Mn	0.206920	0.334270	0.037880	0.942062
Mn2	Mn	0.206920	0.703610	0.665730	0.942062
Mn3	Mn	0.206920	0.962120	0.296390	0.942062
Mn4	Mn	0.706920	0.665730	0.962120	0.942062
Mn5	Mn	0.706920	0.296390	0.334270	0.942062
Mn6	Mn	0.706920	0.037880	0.703610	0.942062
Cr1	Cr	0.589600	0.666670	0.333340	0.301523
Cr2	Cr	0.089600	0.333330	0.666660	0.301523
H1	H	0.609500	0.254300	0.848100	0.285239
H2	H	0.605800	0.197200	0.914200	0.285239
H3	H	0.869200	0.285800	0.866000	0.102707
H4	H	0.724100	0.395400	0.043400	0.085022
H5	H	0.816300	0.320400	0.082800	0.085022
H6	H	0.960200	0.480200	0.133200	0.292914
H7	H	0.968600	0.456600	0.017200	0.292914
H8	H	0.609500	0.593800	0.745700	0.285239
H9	H	0.605800	0.717000	0.802800	0.285239
H10	H	0.869200	0.580200	0.714200	0.102707
H11	H	0.724100	0.648000	0.604600	0.085022
H12	H	0.816300	0.762400	0.679600	0.085022
H13	H	0.960200	0.653000	0.519800	0.292914
H14	H	0.968600	0.560600	0.543400	0.292914
H15	H	0.609500	0.151900	0.406200	0.285239
H16	H	0.605800	0.085800	0.283000	0.285239
H17	H	0.869200	0.134000	0.419800	0.102707
H18	H	0.724100	0.956600	0.352000	0.085022
H19	H	0.816300	0.917200	0.237600	0.085022
H20	H	0.960200	0.866800	0.347000	0.292914
H21	H	0.968600	0.982800	0.439400	0.292914
H22	H	0.109500	0.745700	0.151900	0.285239
H23	H	0.105800	0.802800	0.085800	0.285239
H24	H	0.369200	0.714200	0.134000	0.102707
H25	H	0.224100	0.604600	0.956600	0.085022
H26	H	0.316300	0.679600	0.917200	0.085022
H27	H	0.460200	0.519800	0.866800	0.292914
H28	H	0.468600	0.543400	0.982800	0.292914
H29	H	0.109500	0.406200	0.254300	0.285239
H30	H	0.105800	0.283000	0.197200	0.285239
H31	H	0.369200	0.419800	0.285800	0.102707
H32	H	0.224100	0.352000	0.395400	0.085022
H33	H	0.316300	0.237600	0.320400	0.085022
H34	H	0.460200	0.347000	0.480200	0.292914
H35	H	0.468600	0.439400	0.456600	0.292914
H36	H	0.109500	0.848100	0.593800	0.285239
H37	H	0.105800	0.914200	0.717000	0.285239
H38	H	0.369200	0.866000	0.580200	0.102707
H39	H	0.224100	0.043400	0.648000	0.085022
H40	H	0.316300	0.082800	0.762400	0.085022
H41	H	0.460200	0.133200	0.653000	0.292914
H42	H	0.468600	0.017200	0.560600	0.292914
C1	C	0.439100	0.556600	0.202600	0.057733
C2	C	0.826600	0.254100	0.911200	-0.026374
C3	C	0.822100	0.350700	0.032200	0.034157
C4	C	0.721100	0.679500	0.209800	0.057733
C5	C	0.944800	0.158600	0.892000	0.636326
C6	C	0.439100	0.646000	0.443400	0.057733
C7	C	0.826600	0.657100	0.745900	-0.026374
C8	C	0.822100	0.681500	0.649300	0.034157
C9	C	0.721100	0.530300	0.320500	0.057733
C10	C	0.944800	0.733400	0.841400	0.636326
C11	C	0.439100	0.797400	0.354000	0.057733
C12	C	0.826600	0.088800	0.342900	-0.026374
C13	C	0.822100	0.967800	0.318500	0.034157
C14	C	0.721100	0.790200	0.469700	0.057733
C15	C	0.944800	0.108000	0.266600	0.636326
C16	C	0.939100	0.443400	0.797400	0.057733
C17	C	0.326600	0.745900	0.088800	-0.026374
C18	C	0.322100	0.649300	0.967800	0.034157
C19	C	0.221100	0.320500	0.790200	0.057733
C20	C	0.444800	0.841400	0.108000	0.636326
C21	C	0.939100	0.354000	0.556600	0.057733
C22	C	0.326600	0.342900	0.254100	-0.026374
C23	C	0.322100	0.318500	0.350700	0.034157
C24	C	0.221100	0.469700	0.679500	0.057733
C25	C	0.444800	0.266600	0.158600	0.636326
C26	C	0.939100	0.202600	0.646000	0.057733
C27	C	0.326600	0.911200	0.657100	-0.026374
C28	C	0.322100	0.032200	0.681500	0.034157
C29	C	0.221100	0.209800	0.530300	0.057733
C30	C	0.444800	0.892000	0.733400	0.636326
N1	N	0.664700	0.207100	0.864200	-0.623343
N2	N	0.353600	0.495500	0.129400	-0.401043
N3	N	0.768800	0.680400	0.129900	-0.401043
N4	N	0.968200	0.424500	0.060800	-0.649993
N5	N	0.664700	0.657100	0.792900	-0.623343
N6	N	0.353600	0.633900	0.504500	-0.401043
N7	N	0.768800	0.449500	0.319600	-0.401043
N8	N	0.968200	0.636300	0.575500	-0.649993
N9	N	0.664700	0.135800	0.342900	-0.623343
N10	N	0.353600	0.870600	0.366100	-0.401043
N11	N	0.768800	0.870100	0.550500	-0.401043
N12	N	0.968200	0.939200	0.363700	-0.649993
N13	N	0.164700	0.792900	0.135800	-0.623343
N14	N	0.853600	0.504500	0.870600	-0.401043
N15	N	0.268800	0.319600	0.870100	-0.401043
N16	N	0.468200	0.575500	0.939200	-0.649993
N17	N	0.164700	0.342900	0.207100	-0.623343
N18	N	0.853600	0.366100	0.495500	-0.401043
N19	N	0.268800	0.550500	0.680400	-0.401043
N20	N	0.468200	0.363700	0.424500	-0.649993
N21	N	0.164700	0.864200	0.657100	-0.623343
N22	N	0.853600	0.129400	0.633900	-0.401043
N23	N	0.268800	0.129900	0.449500	-0.401043
N24	N	0.468200	0.060800	0.636300	-0.649993
O1	O	0.066400	0.179700	0.952200	-0.577890
O2	O	0.910300	0.057700	0.813100	-0.577890
O3	O	0.066400	0.772500	0.820300	-0.577890
O4	O	0.910300	0.755400	0.942300	-0.577890
O5	O	0.066400	0.047800	0.227500	-0.577890
O6	O	0.910300	0.186900	0.244600	-0.577890
O7	O	0.566400	0.820300	0.047800	-0.577890
O8	O	0.410300	0.942300	0.186900	-0.577890
O9	O	0.566400	0.227500	0.179700	-0.577890
O10	O	0.410300	0.244600	0.057700	-0.577890
O11	O	0.566400	0.952200	0.772500	-0.577890
O12	O	0.410300	0.813100	0.755400	-0.577890
