data_JAVTAC_clean_PM
_symmetry_space_group_name_H-M	'P1'
_cell_length_a	8.421200
_cell_length_b	12.131500
_cell_length_c	12.131500
_cell_angle_alpha	66.436199
_cell_angle_beta	69.691299
_cell_angle_gamma	69.691300
_symmetry_Int_Tables_number 1

loop_
_symmetry_equiv_pos_as_xyz
'x,y,z'

loop_
_atom_site_label
_atom_site_type_symbol
_atom_site_fract_x
_atom_site_fract_y
_atom_site_fract_z
_atom_site_charge
Al1	Al	0.212700	0.836900	0.097100	1.909651
Al2	Al	0.802300	0.944400	0.844800	2.095089
Al3	Al	0.146700	0.163100	0.902900	1.909651
Al4	Al	0.591500	0.055600	0.155200	2.095089
Al5	Al	0.712700	0.597100	0.336900	1.909651
Al6	Al	0.302300	0.344800	0.444400	2.095089
Al7	Al	0.646700	0.402900	0.663100	1.909651
Al8	Al	0.091500	0.655200	0.555600	2.095089
Al9	Al	0.438000	0.897800	0.602200	2.095089
Al10	Al	0.938000	0.102200	0.397800	2.095089
P1	P	0.845000	0.810700	0.114300	2.018676
P2	P	0.433400	0.940600	0.839400	2.018676
P3	P	0.770000	0.189300	0.885700	2.018676
P4	P	0.213400	0.059400	0.160600	2.018676
P5	P	0.345000	0.614300	0.310700	2.018676
P6	P	0.933400	0.339400	0.440600	2.018676
P7	P	0.270000	0.385700	0.689300	2.018676
P8	P	0.713400	0.660600	0.559400	2.018676
P9	P	0.072700	0.886000	0.614000	2.038076
P10	P	0.572700	0.114000	0.386000	2.038076
O1	O	0.021500	0.812100	0.108500	-0.956195
O2	O	0.613300	0.939600	0.825600	-0.992204
O3	O	0.818900	0.685700	0.186700	-0.956195
O4	O	0.842600	0.839300	0.985100	-0.992204
O5	O	0.365300	0.847600	0.956200	-0.956195
O6	O	0.720500	0.908500	0.167300	-0.992204
O7	O	0.314500	0.066900	0.833300	-0.956195
O8	O	0.974100	0.892800	0.734400	-0.994511
O9	O	0.434200	0.914400	0.733200	-0.992204
O10	O	0.942100	0.187900	0.891500	-0.956195
O11	O	0.378500	0.060400	0.174400	-0.992204
O12	O	0.691300	0.314300	0.813300	-0.956195
O13	O	0.667000	0.160700	0.014900	-0.992204
O14	O	0.169100	0.152400	0.043800	-0.956195
O15	O	0.796300	0.091500	0.832700	-0.992204
O16	O	0.214700	0.933100	0.166700	-0.956195
O17	O	0.601300	0.107200	0.265600	-0.994511
O18	O	0.081800	0.085600	0.266800	-0.992204
O19	O	0.521500	0.608500	0.312100	-0.956195
O20	O	0.113300	0.325600	0.439600	-0.992204
O21	O	0.318900	0.686700	0.185700	-0.956195
O22	O	0.342600	0.485100	0.339300	-0.992204
O23	O	0.865300	0.456200	0.347600	-0.956195
O24	O	0.220500	0.667300	0.408500	-0.992204
O25	O	0.814500	0.333300	0.566900	-0.956195
O26	O	0.474100	0.234400	0.392800	-0.994511
O27	O	0.934200	0.233200	0.414400	-0.992204
O28	O	0.442100	0.391500	0.687900	-0.956195
O29	O	0.878500	0.674400	0.560400	-0.992204
O30	O	0.191300	0.313300	0.814300	-0.956195
O31	O	0.167000	0.514900	0.660700	-0.992204
O32	O	0.669100	0.543800	0.652400	-0.956195
O33	O	0.296300	0.332700	0.591500	-0.992204
O34	O	0.714700	0.666700	0.433100	-0.956195
O35	O	0.101300	0.765600	0.607200	-0.994511
O36	O	0.581800	0.766800	0.585600	-0.992204
O37	O	0.237000	0.902000	0.598000	-0.994511
O38	O	0.009000	0.982800	0.517200	-0.994511
O39	O	0.737000	0.098000	0.402000	-0.994511
O40	O	0.509000	0.017200	0.482800	-0.994511
F1	F	0.086500	0.000000	0.000000	-0.652106
F2	F	0.586500	0.500000	0.500000	-0.652106
