data_JEMNAR_clean_PM
_symmetry_space_group_name_H-M	'P1'
_cell_length_a	9.354900
_cell_length_b	10.883000
_cell_length_c	13.104000
_cell_angle_alpha	113.080000
_cell_angle_beta	90.000000
_cell_angle_gamma	90.000000
_symmetry_Int_Tables_number 1

loop_
_symmetry_equiv_pos_as_xyz
'x,y,z'

loop_
_atom_site_label
_atom_site_type_symbol
_atom_site_fract_x
_atom_site_fract_y
_atom_site_fract_z
_atom_site_charge
Ni1	Ni	0.761610	0.806660	0.574370	0.883293
Ni2	Ni	0.261610	0.693340	0.425630	0.883293
Ni3	Ni	0.238390	0.193340	0.425630	0.883293
Ni4	Ni	0.738390	0.306660	0.574370	0.883293
H1	H	0.620300	0.503000	0.353000	0.080083
H2	H	0.844100	0.495000	0.282700	0.155954
H3	H	0.853800	0.418600	0.361700	0.155954
H4	H	0.893700	0.706900	0.731100	0.089865
H5	H	0.991800	0.776600	0.904000	0.133173
H6	H	0.926500	0.152000	0.936400	0.133173
H7	H	0.835700	0.071800	0.759800	0.089865
H8	H	0.120300	0.997000	0.647000	0.080083
H9	H	0.344100	0.005000	0.717300	0.155954
H10	H	0.353800	0.081400	0.638300	0.155954
H11	H	0.393700	0.793100	0.268900	0.089865
H12	H	0.491800	0.723400	0.096000	0.133173
H13	H	0.426500	0.348000	0.063600	0.133173
H14	H	0.335700	0.428200	0.240200	0.089865
H15	H	0.379700	0.497000	0.647000	0.080083
H16	H	0.155900	0.505000	0.717300	0.155954
H17	H	0.146200	0.581400	0.638300	0.155954
H18	H	0.106300	0.293100	0.268900	0.089865
H19	H	0.008200	0.223400	0.096000	0.133173
H20	H	0.073500	0.848000	0.063600	0.133173
H21	H	0.164300	0.928200	0.240200	0.089865
H22	H	0.879700	0.003000	0.353000	0.080083
H23	H	0.655900	0.995000	0.282700	0.155954
H24	H	0.646200	0.918600	0.361700	0.155954
H25	H	0.606300	0.206900	0.731100	0.089865
H26	H	0.508200	0.276600	0.904000	0.133173
H27	H	0.573500	0.652000	0.936400	0.133173
H28	H	0.664300	0.571800	0.759800	0.089865
C1	C	0.668000	0.547800	0.518000	0.624256
C2	C	0.692500	0.557300	0.405600	0.153577
C3	C	0.840600	0.506000	0.359800	-0.404954
C4	C	0.963600	0.594500	0.420700	0.725695
C5	C	0.899600	0.798200	0.773300	0.180936
C6	C	0.958700	0.839100	0.877400	-0.184208
C7	C	0.968400	0.975300	0.942700	0.096682
C8	C	0.921000	0.060300	0.896200	-0.184208
C9	C	0.864700	0.011400	0.790000	0.180936
C10	C	0.168000	0.952200	0.482000	0.624256
C11	C	0.192500	0.942700	0.594400	0.153577
C12	C	0.340600	0.994000	0.640200	-0.404954
C13	C	0.463600	0.905500	0.579300	0.725695
C14	C	0.399600	0.701800	0.226700	0.180936
C15	C	0.458700	0.660900	0.122600	-0.184208
C16	C	0.468400	0.524700	0.057300	0.096682
C17	C	0.421000	0.439700	0.103800	-0.184208
C18	C	0.364700	0.488600	0.210000	0.180936
C19	C	0.332000	0.452200	0.482000	0.624256
C20	C	0.307500	0.442700	0.594400	0.153577
C21	C	0.159400	0.494000	0.640200	-0.404954
C22	C	0.036400	0.405500	0.579300	0.725695
C23	C	0.100400	0.201800	0.226700	0.180936
C24	C	0.041300	0.160900	0.122600	-0.184208
C25	C	0.031600	0.024700	0.057300	0.096682
C26	C	0.079000	0.939700	0.103800	-0.184208
C27	C	0.135300	0.988600	0.210000	0.180936
C28	C	0.832000	0.047800	0.518000	0.624256
C29	C	0.807500	0.057300	0.405600	0.153577
C30	C	0.659400	0.006000	0.359800	-0.404954
C31	C	0.536400	0.094500	0.420700	0.725695
C32	C	0.600400	0.298200	0.773300	0.180936
C33	C	0.541300	0.339100	0.877400	-0.184208
C34	C	0.531600	0.475300	0.942700	0.096682
C35	C	0.579000	0.560300	0.896200	-0.184208
C36	C	0.635300	0.511400	0.790000	0.180936
N1	N	0.850600	0.880600	0.729100	-0.279547
N2	N	0.350600	0.619400	0.270900	-0.279547
N3	N	0.149400	0.119400	0.270900	-0.279547
N4	N	0.649400	0.380600	0.729100	-0.279547
O1	O	0.669000	0.653800	0.603800	-0.522881
O2	O	0.645500	0.432600	0.513800	-0.522881
O3	O	0.680900	0.693300	0.414600	-0.457995
O4	O	0.942400	0.685600	0.515900	-0.563384
O5	O	0.084400	0.571200	0.374500	-0.563384
O6	O	0.169000	0.846200	0.396200	-0.522881
O7	O	0.145500	0.067400	0.486200	-0.522881
O8	O	0.180900	0.806700	0.585400	-0.457995
O9	O	0.442400	0.814400	0.484100	-0.563384
O10	O	0.584400	0.928800	0.625500	-0.563384
O11	O	0.331000	0.346200	0.396200	-0.522881
O12	O	0.354500	0.567400	0.486200	-0.522881
O13	O	0.319100	0.306700	0.585400	-0.457995
O14	O	0.057600	0.314400	0.484100	-0.563384
O15	O	0.915600	0.428800	0.625500	-0.563384
O16	O	0.831000	0.153800	0.603800	-0.522881
O17	O	0.854500	0.932600	0.513800	-0.522881
O18	O	0.819100	0.193300	0.414600	-0.457995
O19	O	0.557600	0.185600	0.515900	-0.563384
O20	O	0.415600	0.071200	0.374500	-0.563384
