data_JETNOL_clean_PM
_symmetry_space_group_name_H-M	'P1'
_cell_length_a	7.705300
_cell_length_b	7.705300
_cell_length_c	14.815500
_cell_angle_alpha	90.000000
_cell_angle_beta	90.000000
_cell_angle_gamma	119.999998
_symmetry_Int_Tables_number 1

loop_
_symmetry_equiv_pos_as_xyz
'x,y,z'

loop_
_atom_site_label
_atom_site_type_symbol
_atom_site_fract_x
_atom_site_fract_y
_atom_site_fract_z
_atom_site_charge
La1	La	0.666670	0.333340	0.750000	2.323508
La2	La	0.333330	0.666660	0.250000	2.323508
Cr1	Cr	0.000000	0.000000	0.500000	0.288587
Cr2	Cr	0.000000	0.000000	0.000000	0.288587
C1	C	0.251600	0.109200	0.580700	0.148825
C2	C	0.857600	0.748400	0.580700	0.148825
C3	C	0.890800	0.142400	0.580700	0.148825
C4	C	0.748400	0.890800	0.080700	0.148825
C5	C	0.142400	0.251600	0.080700	0.148825
C6	C	0.109200	0.857600	0.080700	0.148825
C7	C	0.748400	0.890800	0.419300	0.148825
C8	C	0.142400	0.251600	0.419300	0.148825
C9	C	0.109200	0.857600	0.419300	0.148825
C10	C	0.251600	0.109200	0.919300	0.148825
C11	C	0.857600	0.748400	0.919300	0.148825
C12	C	0.890800	0.142400	0.919300	0.148825
N1	N	0.389700	0.169800	0.625400	-0.584174
N2	N	0.780100	0.610300	0.625400	-0.584174
N3	N	0.830200	0.219900	0.625400	-0.584174
N4	N	0.610300	0.830200	0.125400	-0.584174
N5	N	0.219900	0.389700	0.125400	-0.584174
N6	N	0.169800	0.780100	0.125400	-0.584174
N7	N	0.610300	0.830200	0.374600	-0.584174
N8	N	0.219900	0.389700	0.374600	-0.584174
N9	N	0.169800	0.780100	0.374600	-0.584174
N10	N	0.389700	0.169800	0.874600	-0.584174
N11	N	0.780100	0.610300	0.874600	-0.584174
N12	N	0.830200	0.219900	0.874600	-0.584174
