data_JEXSOV_clean_PM
_symmetry_space_group_name_H-M	'P1'
_cell_length_a	6.267200
_cell_length_b	8.620400
_cell_length_c	12.936000
_cell_angle_alpha	105.314001
_cell_angle_beta	90.439002
_cell_angle_gamma	105.080997
_symmetry_Int_Tables_number 1

loop_
_symmetry_equiv_pos_as_xyz
'x,y,z'

loop_
_atom_site_label
_atom_site_type_symbol
_atom_site_fract_x
_atom_site_fract_y
_atom_site_fract_z
_atom_site_charge
Nd1	Nd	0.809130	0.666460	0.074900	2.313772
Nd2	Nd	0.557560	0.027800	0.257620	2.266438
Nd3	Nd	0.190870	0.333540	0.925100	2.313772
Nd4	Nd	0.442440	0.972200	0.742380	2.266438
H1	H	0.980300	0.969500	0.295300	0.367146
H2	H	0.019700	0.030500	0.704700	0.367146
C1	C	0.944700	0.051900	0.045600	0.569359
C2	C	0.542600	0.302100	0.128400	0.546256
C3	C	0.731200	0.394700	0.218300	0.565381
C4	C	0.405400	0.918400	0.478700	0.559275
C5	C	0.055300	0.948100	0.954400	0.569359
C6	C	0.457400	0.697900	0.871600	0.546256
C7	C	0.268800	0.605300	0.781700	0.565381
C8	C	0.594600	0.081600	0.521300	0.559275
N1	N	0.284300	0.707500	0.131400	0.856859
N2	N	0.715700	0.292500	0.868600	0.856859
O1	O	0.827400	0.971200	0.103500	-0.780082
O2	O	0.979100	0.203900	0.055400	-0.623134
O3	O	0.441700	0.156300	0.125500	-0.614473
O4	O	0.504600	0.384100	0.065800	-0.752075
O5	O	0.765300	0.314200	0.282100	-0.681352
O6	O	0.835900	0.540200	0.222100	-0.678080
O7	O	0.358400	0.869700	0.379500	-0.666724
O8	O	0.316300	0.849300	0.547800	-0.666724
O9	O	0.200600	0.831800	0.162300	-0.613761
O10	O	0.160400	0.566900	0.075300	-0.603920
O11	O	0.490000	0.732200	0.160500	-0.613761
O12	O	0.858700	0.897900	0.294800	-0.750402
O13	O	0.172600	0.028800	0.896500	-0.780082
O14	O	0.020900	0.796100	0.944600	-0.623134
O15	O	0.558300	0.843700	0.874500	-0.614473
O16	O	0.495400	0.615900	0.934200	-0.752075
O17	O	0.234700	0.685800	0.717900	-0.681352
O18	O	0.164100	0.459800	0.777900	-0.678080
O19	O	0.641600	0.130300	0.620500	-0.666724
O20	O	0.683700	0.150700	0.452200	-0.666724
O21	O	0.799400	0.168200	0.837700	-0.613761
O22	O	0.839600	0.433100	0.924700	-0.603920
O23	O	0.510000	0.267800	0.839500	-0.613761
O24	O	0.141300	0.102100	0.705200	-0.750402
