data_JOGBIR_clean_PM
_symmetry_space_group_name_H-M	'P1'
_cell_length_a	6.657900
_cell_length_b	15.258200
_cell_length_c	15.258200
_cell_angle_alpha	120.000000
_cell_angle_beta	90.000000
_cell_angle_gamma	90.000000
_symmetry_Int_Tables_number 1

loop_
_symmetry_equiv_pos_as_xyz
'x,y,z'

loop_
_atom_site_label
_atom_site_type_symbol
_atom_site_fract_x
_atom_site_fract_y
_atom_site_fract_z
_atom_site_charge
Cu1	Cu	0.511600	0.915820	0.864310	0.032215
Cu2	Cu	0.216490	0.757580	0.469370	0.203093
Cu3	Cu	0.511600	0.948490	0.084180	0.032215
Cu4	Cu	0.216490	0.711790	0.242420	0.203093
Cu5	Cu	0.511600	0.135690	0.051510	0.032215
Cu6	Cu	0.216490	0.530630	0.288210	0.203093
Cu7	Cu	0.857100	0.000000	0.000000	-0.075549
Cu8	Cu	0.873100	0.666670	0.333340	-0.138838
H1	H	0.097900	0.888100	0.774700	0.081222
H2	H	0.095600	0.796900	0.663100	0.081222
H3	H	0.335000	0.973200	0.729800	0.063066
H4	H	0.617000	0.874100	0.674500	0.079222
H5	H	0.642700	0.789400	0.560300	0.079222
H6	H	0.360400	0.703200	0.585400	0.075114
H7	H	0.556500	0.703600	0.643400	0.075114
H8	H	0.114100	0.025900	0.645200	0.111008
H9	H	0.976700	0.998600	0.711500	0.111008
H10	H	0.998100	0.922600	0.595100	0.111008
H11	H	0.240500	0.780200	0.847200	0.073297
H12	H	0.117100	0.723500	0.747400	0.073297
H13	H	0.433500	0.610300	0.699400	0.100787
H14	H	0.203600	0.653400	0.867400	0.109849
H15	H	0.344900	0.555200	0.807300	0.109849
H16	H	0.539800	0.896400	0.486900	0.078654
H17	H	0.329100	0.950400	0.513600	0.078654
H18	H	0.585900	0.030700	0.684100	0.100787
H19	H	0.521600	0.116000	0.561700	0.109849
H20	H	0.624700	0.172300	0.672000	0.109849
H21	H	0.097900	0.886600	0.111900	0.081222
H22	H	0.095600	0.866200	0.203100	0.081222
H23	H	0.335000	0.756600	0.026800	0.063066
H24	H	0.617000	0.800400	0.125900	0.079222
H25	H	0.642700	0.770900	0.210600	0.079222
H26	H	0.360400	0.882200	0.296800	0.075114
H27	H	0.556500	0.939800	0.296400	0.075114
H28	H	0.114100	0.619300	0.974100	0.111008
H29	H	0.976700	0.712900	0.001400	0.111008
H30	H	0.998100	0.672500	0.077400	0.111008
H31	H	0.240500	0.067000	0.219800	0.073297
H32	H	0.117100	0.023900	0.276500	0.073297
H33	H	0.433500	0.089100	0.389700	0.100787
H34	H	0.203600	0.214000	0.346600	0.109849
H35	H	0.344900	0.252100	0.444800	0.109849
H36	H	0.539800	0.590500	0.103600	0.078654
H37	H	0.329100	0.563200	0.049600	0.078654
H38	H	0.585900	0.653400	0.969300	0.100787
H39	H	0.521600	0.445700	0.884000	0.109849
H40	H	0.624700	0.499700	0.827700	0.109849
H41	H	0.097900	0.225300	0.113400	0.081222
H42	H	0.095600	0.336900	0.133800	0.081222
H43	H	0.335000	0.270200	0.243400	0.063066
H44	H	0.617000	0.325500	0.199600	0.079222
H45	H	0.642700	0.439700	0.229100	0.079222
H46	H	0.360400	0.414600	0.117800	0.075114
H47	H	0.556500	0.356600	0.060200	0.075114
H48	H	0.114100	0.354800	0.380700	0.111008
H49	H	0.976700	0.288500	0.287100	0.111008
H50	H	0.998100	0.404900	0.327500	0.111008
H51	H	0.240500	0.152800	0.933000	0.073297
H52	H	0.117100	0.252600	0.976100	0.073297
H53	H	0.433500	0.300600	0.910900	0.100787
H54	H	0.203600	0.132600	0.786000	0.109849
H55	H	0.344900	0.192700	0.747900	0.109849
H56	H	0.539800	0.513100	0.409500	0.078654
H57	H	0.329100	0.486400	0.436800	0.078654
H58	H	0.585900	0.315900	0.346600	0.100787
H59	H	0.521600	0.438300	0.554300	0.109849
H60	H	0.624700	0.328000	0.500300	0.109849
C1	C	0.178900	0.849800	0.714400	-0.081295
C2	C	0.253100	0.919800	0.676300	0.141773
C3	C	0.547500	0.822000	0.615600	-0.017886
C4	C	0.453900	0.746100	0.638400	-0.060731
C5	C	0.067000	0.971900	0.654900	-0.367437
C6	C	0.252600	0.739200	0.774300	-0.027235
C7	C	0.344800	0.645700	0.752800	-0.111150
C8	C	0.292900	0.615200	0.815000	-0.199567
C9	C	0.444000	0.933200	0.541100	0.004766
C10	C	0.541500	0.030200	0.626000	-0.110654
C11	C	0.565100	0.115100	0.619200	-0.199567
C12	C	0.178900	0.864600	0.150200	-0.081295
C13	C	0.253100	0.756500	0.080200	0.141773
C14	C	0.547500	0.793600	0.178000	-0.017886
C15	C	0.453900	0.892300	0.253900	-0.060731
C16	C	0.067000	0.683000	0.028100	-0.367437
C17	C	0.252600	0.035100	0.260800	-0.027235
C18	C	0.344800	0.107100	0.354300	-0.111150
C19	C	0.292900	0.199800	0.384800	-0.199567
C20	C	0.444000	0.607900	0.066800	0.004766
C21	C	0.541500	0.595800	0.969800	-0.110654
C22	C	0.565100	0.504100	0.884900	-0.199567
C23	C	0.178900	0.285600	0.135400	-0.081295
C24	C	0.253100	0.323700	0.243500	0.141773
C25	C	0.547500	0.384400	0.206400	-0.017886
C26	C	0.453900	0.361600	0.107700	-0.060731
C27	C	0.067000	0.345100	0.317000	-0.367437
C28	C	0.252600	0.225700	0.964900	-0.027235
C29	C	0.344800	0.247200	0.892900	-0.111150
C30	C	0.292900	0.185000	0.800200	-0.199567
C31	C	0.444000	0.458900	0.392100	0.004766
C32	C	0.541500	0.374000	0.404200	-0.110654
C33	C	0.565100	0.380800	0.495900	-0.199567
Br1	Br	0.713040	0.828210	0.937270	-0.239795
Br2	Br	0.988730	0.625270	0.461070	-0.212735
Br3	Br	0.713040	0.109060	0.171790	-0.239795
Br4	Br	0.988730	0.835800	0.374730	-0.212735
Br5	Br	0.713040	0.062730	0.890940	-0.239795
Br6	Br	0.988730	0.538930	0.164200	-0.212735
Br7	Br	0.221600	0.000000	0.000000	-0.222528
Br8	Br	0.489800	0.666670	0.333340	-0.224950
N1	N	0.346500	0.805300	0.737100	-0.158479
N2	N	0.376100	0.866500	0.586800	-0.186768
N3	N	0.346500	0.931800	0.194700	-0.158479
N4	N	0.376100	0.720300	0.133500	-0.186768
N5	N	0.346500	0.262900	0.068200	-0.158479
N6	N	0.376100	0.413200	0.279700	-0.186768
