data_JUCXEK_clean_PM
_symmetry_space_group_name_H-M	'P1'
_cell_length_a	11.382000
_cell_length_b	11.382000
_cell_length_c	11.734000
_cell_angle_alpha	90.000000
_cell_angle_beta	90.000000
_cell_angle_gamma	120.000000
_symmetry_Int_Tables_number 1

loop_
_symmetry_equiv_pos_as_xyz
'x,y,z'

loop_
_atom_site_label
_atom_site_type_symbol
_atom_site_fract_x
_atom_site_fract_y
_atom_site_fract_z
_atom_site_charge
Np1	Np	0.507440	0.896480	0.750000	1.715943
Np2	Np	0.389040	0.492560	0.750000	1.715943
Np3	Np	0.103520	0.610960	0.750000	1.715943
Np4	Np	0.492560	0.103520	0.250000	1.715943
Np5	Np	0.610960	0.507440	0.250000	1.715943
Np6	Np	0.896480	0.389040	0.250000	1.715943
C1	C	0.499300	0.936900	0.475600	0.587754
C2	C	0.437600	0.500700	0.475600	0.587754
C3	C	0.063100	0.562400	0.475600	0.587754
C4	C	0.500700	0.063100	0.975600	0.587754
C5	C	0.562400	0.499300	0.975600	0.587754
C6	C	0.936900	0.437600	0.975600	0.587754
C7	C	0.500700	0.063100	0.524400	0.587754
C8	C	0.562400	0.499300	0.524400	0.587754
C9	C	0.936900	0.437600	0.524400	0.587754
C10	C	0.499300	0.936900	0.024400	0.587754
C11	C	0.437600	0.500700	0.024400	0.587754
C12	C	0.063100	0.562400	0.024400	0.587754
O1	O	0.504300	0.856000	0.544200	-0.546041
O2	O	0.510100	0.076000	0.631600	-0.546041
O3	O	0.351700	0.495700	0.544200	-0.546041
O4	O	0.565900	0.489900	0.631600	-0.546041
O5	O	0.144000	0.648300	0.544200	-0.546041
O6	O	0.924000	0.434100	0.631600	-0.546041
O7	O	0.495700	0.144000	0.044200	-0.546041
O8	O	0.489900	0.924000	0.131600	-0.546041
O9	O	0.648300	0.504300	0.044200	-0.546041
O10	O	0.434100	0.510100	0.131600	-0.546041
O11	O	0.856000	0.351700	0.044200	-0.546041
O12	O	0.076000	0.565900	0.131600	-0.546041
O13	O	0.495700	0.144000	0.455800	-0.546041
O14	O	0.489900	0.924000	0.368400	-0.546041
O15	O	0.648300	0.504300	0.455800	-0.546041
O16	O	0.434100	0.510100	0.368400	-0.546041
O17	O	0.856000	0.351700	0.455800	-0.546041
O18	O	0.076000	0.565900	0.368400	-0.546041
O19	O	0.504300	0.856000	0.955800	-0.546041
O20	O	0.510100	0.076000	0.868400	-0.546041
O21	O	0.351700	0.495700	0.955800	-0.546041
O22	O	0.565900	0.489900	0.868400	-0.546041
O23	O	0.144000	0.648300	0.955800	-0.546041
O24	O	0.924000	0.434100	0.868400	-0.546041
O25	O	0.316600	0.812900	0.750000	-0.707287
O26	O	0.496300	0.683400	0.750000	-0.707287
O27	O	0.187100	0.503700	0.750000	-0.707287
O28	O	0.683400	0.187100	0.250000	-0.707287
O29	O	0.503700	0.316600	0.250000	-0.707287
O30	O	0.812900	0.496300	0.250000	-0.707287
