data_KEDQAN_clean_PM
_symmetry_space_group_name_H-M	'P1'
_cell_length_a	11.980000
_cell_length_b	17.982000
_cell_length_c	18.625000
_cell_angle_alpha	90.000000
_cell_angle_beta	90.000000
_cell_angle_gamma	90.000000
_symmetry_Int_Tables_number 1

loop_
_symmetry_equiv_pos_as_xyz
'x,y,z'

loop_
_atom_site_label
_atom_site_type_symbol
_atom_site_fract_x
_atom_site_fract_y
_atom_site_fract_z
_atom_site_charge
Zn1	Zn	0.389900	0.802650	0.509130	1.079224
Zn2	Zn	0.110100	0.802650	0.490870	1.079224
Zn3	Zn	0.610100	0.697350	0.509130	1.079224
Zn4	Zn	0.889900	0.697350	0.490870	1.079224
Zn5	Zn	0.610100	0.197350	0.490870	1.079224
Zn6	Zn	0.889900	0.197350	0.509130	1.079224
Zn7	Zn	0.389900	0.302650	0.490870	1.079224
Zn8	Zn	0.110100	0.302650	0.509130	1.079224
H1	H	0.374500	0.743700	0.292800	0.121469
H2	H	0.384300	0.829900	0.735800	0.097667
H3	H	0.396900	0.065800	0.326200	0.102692
H4	H	0.386900	0.831500	0.858800	0.102692
H5	H	0.357400	0.806900	0.968200	0.100225
H6	H	0.290900	0.837400	0.357300	0.100225
H7	H	0.355300	0.805100	0.091000	0.121469
H8	H	0.151200	0.919700	0.362800	0.102692
H9	H	0.510900	0.894300	0.162200	0.121469
H10	H	0.428300	0.988500	0.227700	0.100225
H11	H	0.051300	0.010300	0.422600	0.097667
H12	H	0.297200	0.155800	0.386200	0.097667
H13	H	0.125500	0.743700	0.707200	0.121469
H14	H	0.115700	0.829900	0.264200	0.097667
H15	H	0.103100	0.065800	0.673800	0.102692
H16	H	0.113100	0.831500	0.141200	0.102692
H17	H	0.142600	0.806900	0.031800	0.100225
H18	H	0.209100	0.837400	0.642700	0.100225
H19	H	0.144700	0.805100	0.909000	0.121469
H20	H	0.348800	0.919700	0.637200	0.102692
H21	H	0.989100	0.894300	0.837800	0.121469
H22	H	0.071700	0.988500	0.772300	0.100225
H23	H	0.448700	0.010300	0.577400	0.097667
H24	H	0.202800	0.155800	0.613800	0.097667
H25	H	0.625500	0.756300	0.292800	0.121469
H26	H	0.615700	0.670100	0.735800	0.097667
H27	H	0.603100	0.434200	0.326200	0.102692
H28	H	0.613100	0.668500	0.858800	0.102692
H29	H	0.642600	0.693100	0.968200	0.100225
H30	H	0.709100	0.662600	0.357300	0.100225
H31	H	0.644700	0.694900	0.091000	0.121469
H32	H	0.848800	0.580300	0.362800	0.102692
H33	H	0.489100	0.605700	0.162200	0.121469
H34	H	0.571700	0.511500	0.227700	0.100225
H35	H	0.948700	0.489700	0.422600	0.097667
H36	H	0.702800	0.344200	0.386200	0.097667
H37	H	0.874500	0.756300	0.707200	0.121469
H38	H	0.884300	0.670100	0.264200	0.097667
H39	H	0.896900	0.434200	0.673800	0.102692
H40	H	0.886900	0.668500	0.141200	0.102692
H41	H	0.857400	0.693100	0.031800	0.100225
H42	H	0.790900	0.662600	0.642700	0.100225
H43	H	0.855300	0.694900	0.909000	0.121469
H44	H	0.651200	0.580300	0.637200	0.102692
H45	H	0.010900	0.605700	0.837800	0.121469
H46	H	0.928300	0.511500	0.772300	0.100225
H47	H	0.551300	0.489700	0.577400	0.097667
H48	H	0.797200	0.344200	0.613800	0.097667
H49	H	0.625500	0.256300	0.707200	0.121469
H50	H	0.615700	0.170100	0.264200	0.097667
H51	H	0.603100	0.934200	0.673800	0.102692
H52	H	0.613100	0.168500	0.141200	0.102692
H53	H	0.642600	0.193100	0.031800	0.100225
H54	H	0.709100	0.162600	0.642700	0.100225
H55	H	0.644700	0.194900	0.909000	0.121469
H56	H	0.848800	0.080300	0.637200	0.102692
H57	H	0.489100	0.105700	0.837800	0.121469
H58	H	0.571700	0.011500	0.772300	0.100225
H59	H	0.948700	0.989700	0.577400	0.097667
H60	H	0.702800	0.844200	0.613800	0.097667
H61	H	0.874500	0.256300	0.292800	0.121469
H62	H	0.884300	0.170100	0.735800	0.097667
H63	H	0.896900	0.934200	0.326200	0.102692
H64	H	0.886900	0.168500	0.858800	0.102692
H65	H	0.857400	0.193100	0.968200	0.100225
H66	H	0.790900	0.162600	0.357300	0.100225
H67	H	0.855300	0.194900	0.091000	0.121469
H68	H	0.651200	0.080300	0.362800	0.102692
H69	H	0.010900	0.105700	0.162200	0.121469
H70	H	0.928300	0.011500	0.227700	0.100225
H71	H	0.551300	0.989700	0.422600	0.097667
H72	H	0.797200	0.844200	0.386200	0.097667
H73	H	0.374500	0.243700	0.707200	0.121469
H74	H	0.384300	0.329900	0.264200	0.097667
H75	H	0.396900	0.565800	0.673800	0.102692
H76	H	0.386900	0.331500	0.141200	0.102692
H77	H	0.357400	0.306900	0.031800	0.100225
H78	H	0.290900	0.337400	0.642700	0.100225
H79	H	0.355300	0.305100	0.909000	0.121469
H80	H	0.151200	0.419700	0.637200	0.102692
H81	H	0.510900	0.394300	0.837800	0.121469
H82	H	0.428300	0.488500	0.772300	0.100225
H83	H	0.051300	0.510300	0.577400	0.097667
H84	H	0.297200	0.655800	0.613800	0.097667
H85	H	0.125500	0.243700	0.292800	0.121469
H86	H	0.115700	0.329900	0.735800	0.097667
H87	H	0.103100	0.565800	0.326200	0.102692
H88	H	0.113100	0.331500	0.858800	0.102692
H89	H	0.142600	0.306900	0.968200	0.100225
H90	H	0.209100	0.337400	0.357300	0.100225
H91	H	0.144700	0.305100	0.091000	0.121469
H92	H	0.348800	0.419700	0.362800	0.102692
H93	H	0.989100	0.394300	0.162200	0.121469
H94	H	0.071700	0.488500	0.227700	0.100225
H95	H	0.448700	0.510300	0.422600	0.097667
H96	H	0.202800	0.655800	0.386200	0.097667
H97	H	0.250000	0.404300	0.500000	0.414329
H98	H	0.750000	0.095700	0.500000	0.414329
H99	H	0.750000	0.595700	0.500000	0.414329
H100	H	0.250000	0.904300	0.500000	0.414329
C1	C	0.384500	0.792920	0.278800	-0.150628
C2	C	0.431600	0.797690	0.760410	-0.034132
C3	C	0.449100	0.808840	0.219820	0.151501
C4	C	0.327400	0.054180	0.345400	-0.150804
C5	C	0.432500	0.798170	0.834430	-0.150804
C6	C	0.285400	0.982280	0.337760	0.040739
C7	C	0.346900	0.923070	0.298360	0.026846
C8	C	0.415300	0.783400	0.992530	-0.083940
C9	C	0.334200	0.849320	0.317530	-0.083940
C10	C	0.414300	0.783000	0.066600	-0.150628
C11	C	0.181100	0.967180	0.367220	-0.150804
C12	C	0.465800	0.882560	0.201260	-0.150628
C13	C	0.415600	0.939210	0.240500	-0.083940
C14	C	0.163100	0.092750	0.409820	-0.156191
C15	C	0.120700	0.021730	0.403040	-0.034132
C16	C	0.267400	0.108360	0.381200	-0.034132
C17	C	0.098000	0.150690	0.447700	0.702310
C18	C	0.115500	0.792920	0.721200	-0.150628
C19	C	0.068400	0.797690	0.239590	-0.034132
C20	C	0.050900	0.808840	0.780180	0.151501
C21	C	0.172600	0.054180	0.654600	-0.150804
C22	C	0.067500	0.798170	0.165570	-0.150804
C23	C	0.214600	0.982280	0.662240	0.040739
C24	C	0.153100	0.923070	0.701640	0.026846
C25	C	0.084700	0.783400	0.007470	-0.083940
C26	C	0.165800	0.849320	0.682470	-0.083940
C27	C	0.085700	0.783000	0.933400	-0.150628
C28	C	0.318900	0.967180	0.632780	-0.150804
C29	C	0.034200	0.882560	0.798740	-0.150628
C30	C	0.084400	0.939210	0.759500	-0.083940
C31	C	0.336900	0.092750	0.590180	-0.156191
C32	C	0.379300	0.021730	0.596960	-0.034132
C33	C	0.232600	0.108360	0.618800	-0.034132
C34	C	0.402000	0.150690	0.552300	0.702310
C35	C	0.615500	0.707080	0.278800	-0.150628
C36	C	0.568400	0.702310	0.760410	-0.034132
C37	C	0.550900	0.691160	0.219820	0.151501
C38	C	0.672600	0.445820	0.345400	-0.150804
C39	C	0.567500	0.701830	0.834430	-0.150804
C40	C	0.714600	0.517720	0.337760	0.040739
C41	C	0.653100	0.576930	0.298360	0.026846
C42	C	0.584700	0.716600	0.992530	-0.083940
C43	C	0.665800	0.650680	0.317530	-0.083940
C44	C	0.585700	0.717000	0.066600	-0.150628
C45	C	0.818900	0.532820	0.367220	-0.150804
C46	C	0.534200	0.617440	0.201260	-0.150628
C47	C	0.584400	0.560790	0.240500	-0.083940
C48	C	0.836900	0.407250	0.409820	-0.156191
C49	C	0.879300	0.478270	0.403040	-0.034132
C50	C	0.732600	0.391640	0.381200	-0.034132
C51	C	0.902000	0.349310	0.447700	0.702310
C52	C	0.884500	0.707080	0.721200	-0.150628
C53	C	0.931600	0.702310	0.239590	-0.034132
C54	C	0.949100	0.691160	0.780180	0.151501
C55	C	0.827400	0.445820	0.654600	-0.150804
C56	C	0.932500	0.701830	0.165570	-0.150804
C57	C	0.785400	0.517720	0.662240	0.040739
C58	C	0.846900	0.576930	0.701640	0.026846
C59	C	0.915300	0.716600	0.007470	-0.083940
C60	C	0.834200	0.650680	0.682470	-0.083940
C61	C	0.914300	0.717000	0.933400	-0.150628
C62	C	0.681100	0.532820	0.632780	-0.150804
C63	C	0.965800	0.617440	0.798740	-0.150628
C64	C	0.915600	0.560790	0.759500	-0.083940
C65	C	0.663100	0.407250	0.590180	-0.156191
C66	C	0.620700	0.478270	0.596960	-0.034132
C67	C	0.767400	0.391640	0.618800	-0.034132
C68	C	0.598000	0.349310	0.552300	0.702310
C69	C	0.615500	0.207080	0.721200	-0.150628
C70	C	0.568400	0.202310	0.239590	-0.034132
C71	C	0.550900	0.191160	0.780180	0.151501
C72	C	0.672600	0.945820	0.654600	-0.150804
C73	C	0.567500	0.201830	0.165570	-0.150804
C74	C	0.714600	0.017720	0.662240	0.040739
C75	C	0.653100	0.076930	0.701640	0.026846
C76	C	0.584700	0.216600	0.007470	-0.083940
C77	C	0.665800	0.150680	0.682470	-0.083940
C78	C	0.585700	0.217000	0.933400	-0.150628
C79	C	0.818900	0.032820	0.632780	-0.150804
C80	C	0.534200	0.117440	0.798740	-0.150628
C81	C	0.584400	0.060790	0.759500	-0.083940
C82	C	0.836900	0.907250	0.590180	-0.156191
C83	C	0.879300	0.978270	0.596960	-0.034132
C84	C	0.732600	0.891640	0.618800	-0.034132
C85	C	0.902000	0.849310	0.552300	0.702310
C86	C	0.884500	0.207080	0.278800	-0.150628
C87	C	0.931600	0.202310	0.760410	-0.034132
C88	C	0.949100	0.191160	0.219820	0.151501
C89	C	0.827400	0.945820	0.345400	-0.150804
C90	C	0.932500	0.201830	0.834430	-0.150804
C91	C	0.785400	0.017720	0.337760	0.040739
C92	C	0.846900	0.076930	0.298360	0.026846
C93	C	0.915300	0.216600	0.992530	-0.083940
C94	C	0.834200	0.150680	0.317530	-0.083940
C95	C	0.914300	0.217000	0.066600	-0.150628
C96	C	0.681100	0.032820	0.367220	-0.150804
C97	C	0.965800	0.117440	0.201260	-0.150628
C98	C	0.915600	0.060790	0.240500	-0.083940
C99	C	0.663100	0.907250	0.409820	-0.156191
C100	C	0.620700	0.978270	0.403040	-0.034132
C101	C	0.767400	0.891640	0.381200	-0.034132
C102	C	0.598000	0.849310	0.447700	0.702310
C103	C	0.384500	0.292920	0.721200	-0.150628
C104	C	0.431600	0.297690	0.239590	-0.034132
C105	C	0.449100	0.308840	0.780180	0.151501
C106	C	0.327400	0.554180	0.654600	-0.150804
C107	C	0.432500	0.298170	0.165570	-0.150804
C108	C	0.285400	0.482280	0.662240	0.040739
C109	C	0.346900	0.423070	0.701640	0.026846
C110	C	0.415300	0.283400	0.007470	-0.083940
C111	C	0.334200	0.349320	0.682470	-0.083940
C112	C	0.414300	0.283000	0.933400	-0.150628
C113	C	0.181100	0.467180	0.632780	-0.150804
C114	C	0.465800	0.382560	0.798740	-0.150628
C115	C	0.415600	0.439210	0.759500	-0.083940
C116	C	0.163100	0.592750	0.590180	-0.156191
C117	C	0.120700	0.521730	0.596960	-0.034132
C118	C	0.267400	0.608360	0.618800	-0.034132
C119	C	0.098000	0.650690	0.552300	0.702310
C120	C	0.115500	0.292920	0.278800	-0.150628
C121	C	0.068400	0.297690	0.760410	-0.034132
C122	C	0.050900	0.308840	0.219820	0.151501
C123	C	0.172600	0.554180	0.345400	-0.150804
C124	C	0.067500	0.298170	0.834430	-0.150804
C125	C	0.214600	0.482280	0.337760	0.040739
C126	C	0.153100	0.423070	0.298360	0.026846
C127	C	0.084700	0.283400	0.992530	-0.083940
C128	C	0.165800	0.349320	0.317530	-0.083940
C129	C	0.085700	0.283000	0.066600	-0.150628
C130	C	0.318900	0.467180	0.367220	-0.150804
C131	C	0.034200	0.382560	0.201260	-0.150628
C132	C	0.084400	0.439210	0.240500	-0.083940
C133	C	0.336900	0.592750	0.409820	-0.156191
C134	C	0.379300	0.521730	0.403040	-0.034132
C135	C	0.232600	0.608360	0.381200	-0.034132
C136	C	0.402000	0.650690	0.447700	0.702310
C137	C	0.500000	0.750000	0.105000	0.151501
C138	C	0.500000	0.750000	0.873500	0.040739
C139	C	0.500000	0.750000	0.641550	0.702310
C140	C	0.500000	0.750000	0.722150	-0.156191
C141	C	0.500000	0.750000	0.953100	0.026846
C142	C	0.000000	0.750000	0.895000	0.151501
C143	C	0.000000	0.750000	0.126500	0.040739
C144	C	0.000000	0.750000	0.358450	0.702310
C145	C	0.000000	0.750000	0.277850	-0.156191
C146	C	0.000000	0.750000	0.046900	0.026846
C147	C	0.500000	0.250000	0.895000	0.151501
C148	C	0.500000	0.250000	0.126500	0.040739
C149	C	0.500000	0.250000	0.358450	0.702310
C150	C	0.500000	0.250000	0.277850	-0.156191
C151	C	0.500000	0.250000	0.046900	0.026846
C152	C	0.000000	0.250000	0.105000	0.151501
C153	C	0.000000	0.250000	0.873500	0.040739
C154	C	0.000000	0.250000	0.641550	0.702310
C155	C	0.000000	0.250000	0.722150	-0.156191
C156	C	0.000000	0.250000	0.953100	0.026846
N1	N	0.500000	0.750000	0.180670	-0.103139
N2	N	0.000000	0.750000	0.819330	-0.103139
N3	N	0.500000	0.250000	0.819330	-0.103139
N4	N	0.000000	0.250000	0.180670	-0.103139
O1	O	0.423060	0.784390	0.610680	-0.640990
O2	O	0.139600	0.214890	0.451500	-0.640990
O3	O	0.005590	0.132340	0.473550	-0.640990
O4	O	0.076940	0.784390	0.389320	-0.640990
O5	O	0.360400	0.214890	0.548500	-0.640990
O6	O	0.494410	0.132340	0.526450	-0.640990
O7	O	0.576940	0.715610	0.610680	-0.640990
O8	O	0.860400	0.285110	0.451500	-0.640990
O9	O	0.994410	0.367660	0.473550	-0.640990
O10	O	0.923060	0.715610	0.389320	-0.640990
O11	O	0.639600	0.285110	0.548500	-0.640990
O12	O	0.505590	0.367660	0.526450	-0.640990
O13	O	0.576940	0.215610	0.389320	-0.640990
O14	O	0.860400	0.785110	0.548500	-0.640990
O15	O	0.994410	0.867660	0.526450	-0.640990
O16	O	0.923060	0.215610	0.610680	-0.640990
O17	O	0.639600	0.785110	0.451500	-0.640990
O18	O	0.505590	0.867660	0.473550	-0.640990
O19	O	0.423060	0.284390	0.389320	-0.640990
O20	O	0.139600	0.714890	0.548500	-0.640990
O21	O	0.005590	0.632340	0.526450	-0.640990
O22	O	0.076940	0.284390	0.610680	-0.640990
O23	O	0.360400	0.714890	0.451500	-0.640990
O24	O	0.494410	0.632340	0.473550	-0.640990
O25	O	0.250000	0.352540	0.500000	-0.934595
O26	O	0.750000	0.147460	0.500000	-0.934595
O27	O	0.750000	0.647460	0.500000	-0.934595
O28	O	0.250000	0.852540	0.500000	-0.934595
