data_KINFAQ_clean_PM
_symmetry_space_group_name_H-M	'P1'
_cell_length_a	10.970900
_cell_length_b	10.970900
_cell_length_c	18.842000
_cell_angle_alpha	73.369603
_cell_angle_beta	73.369603
_cell_angle_gamma	74.308000
_symmetry_Int_Tables_number 1

loop_
_symmetry_equiv_pos_as_xyz
'x,y,z'

loop_
_atom_site_label
_atom_site_type_symbol
_atom_site_fract_x
_atom_site_fract_y
_atom_site_fract_z
_atom_site_charge
Tm1	Tm	0.438450	0.554970	0.605370	2.181671
Tm2	Tm	0.445030	0.561550	0.894630	2.181671
Tm3	Tm	0.561550	0.445030	0.394630	2.181671
Tm4	Tm	0.554970	0.438450	0.105370	2.181671
H1	H	0.584800	0.841400	0.564500	0.108456
H2	H	0.587700	0.048300	0.512300	0.108456
H3	H	0.489300	0.126300	0.722000	0.108456
H4	H	0.490000	0.899800	0.771600	0.108456
H5	H	0.972000	0.422000	0.405100	0.108456
H6	H	0.821600	0.549800	0.595000	0.108456
H7	H	0.158600	0.415200	0.935500	0.108456
H8	H	0.951700	0.412300	0.987700	0.108456
H9	H	0.873700	0.510700	0.778000	0.108456
H10	H	0.100200	0.510000	0.728400	0.108456
H11	H	0.578000	0.028000	0.094900	0.108456
H12	H	0.450200	0.178400	0.905000	0.108456
H13	H	0.415200	0.158600	0.435500	0.108456
H14	H	0.412300	0.951700	0.487700	0.108456
H15	H	0.510700	0.873700	0.278000	0.108456
H16	H	0.510000	0.100200	0.228400	0.108456
H17	H	0.028000	0.578000	0.594900	0.108456
H18	H	0.178400	0.450200	0.405000	0.108456
H19	H	0.841400	0.584800	0.064500	0.108456
H20	H	0.048300	0.587700	0.012300	0.108456
H21	H	0.126300	0.489300	0.222000	0.108456
H22	H	0.899800	0.490000	0.271600	0.108456
H23	H	0.422000	0.972000	0.905100	0.108456
H24	H	0.549800	0.821600	0.095000	0.108456
C1	C	0.535400	0.706000	0.709700	0.786317
C2	C	0.547200	0.851600	0.671100	-0.119263
C3	C	0.569700	0.897700	0.595900	-0.053970
C4	C	0.569400	0.022000	0.565000	-0.053970
C5	C	0.543600	0.117400	0.607500	-0.119263
C6	C	0.527300	0.257500	0.572000	0.786317
C7	C	0.510800	0.070000	0.689600	-0.053970
C8	C	0.512600	0.932600	0.719400	-0.053970
C9	C	0.740900	0.491900	0.494500	0.786317
C10	C	0.876300	0.493300	0.497600	-0.119263
C11	C	0.981700	0.455700	0.442700	-0.053970
C12	C	0.892100	0.532100	0.555700	-0.053970
C13	C	0.294000	0.464600	0.790300	0.786317
C14	C	0.148400	0.452800	0.828900	-0.119263
C15	C	0.102300	0.430300	0.904100	-0.053970
C16	C	0.978000	0.430600	0.935000	-0.053970
C17	C	0.882600	0.456400	0.892500	-0.119263
C18	C	0.742500	0.472700	0.928000	0.786317
C19	C	0.930000	0.489200	0.810400	-0.053970
C20	C	0.067400	0.487400	0.780600	-0.053970
C21	C	0.508100	0.259100	0.005500	0.786317
C22	C	0.506700	0.123700	0.002400	-0.119263
C23	C	0.544300	0.018300	0.057300	-0.053970
C24	C	0.467900	0.107900	0.944300	-0.053970
C25	C	0.464600	0.294000	0.290300	0.786317
C26	C	0.452800	0.148400	0.328900	-0.119263
C27	C	0.430300	0.102300	0.404100	-0.053970
C28	C	0.430600	0.978000	0.435000	-0.053970
C29	C	0.456400	0.882600	0.392500	-0.119263
C30	C	0.472700	0.742500	0.428000	0.786317
C31	C	0.489200	0.930000	0.310400	-0.053970
C32	C	0.487400	0.067400	0.280600	-0.053970
C33	C	0.259100	0.508100	0.505500	0.786317
C34	C	0.123700	0.506700	0.502400	-0.119263
C35	C	0.018300	0.544300	0.557300	-0.053970
C36	C	0.107900	0.467900	0.444300	-0.053970
C37	C	0.706000	0.535400	0.209700	0.786317
C38	C	0.851600	0.547200	0.171100	-0.119263
C39	C	0.897700	0.569700	0.095900	-0.053970
C40	C	0.022000	0.569400	0.065000	-0.053970
C41	C	0.117400	0.543600	0.107500	-0.119263
C42	C	0.257500	0.527300	0.072000	0.786317
C43	C	0.070000	0.510800	0.189600	-0.053970
C44	C	0.932600	0.512600	0.219400	-0.053970
C45	C	0.491900	0.740900	0.994500	0.786317
C46	C	0.493300	0.876300	0.997600	-0.119263
C47	C	0.455700	0.981700	0.942700	-0.053970
C48	C	0.532100	0.892100	0.055700	-0.053970
O1	O	0.530500	0.648900	0.663100	-0.751625
O2	O	0.531900	0.669100	0.775700	-0.751625
O3	O	0.548200	0.295200	0.503200	-0.751625
O4	O	0.492300	0.332700	0.617200	-0.751625
O5	O	0.659400	0.508200	0.553500	-0.751625
O6	O	0.723000	0.474400	0.438800	-0.751625
O7	O	0.351100	0.469500	0.836900	-0.751625
O8	O	0.330900	0.468100	0.724300	-0.751625
O9	O	0.704800	0.451800	0.996800	-0.751625
O10	O	0.667300	0.507700	0.882800	-0.751625
O11	O	0.491800	0.340600	0.946500	-0.751625
O12	O	0.525600	0.277000	0.061200	-0.751625
O13	O	0.469500	0.351100	0.336900	-0.751625
O14	O	0.468100	0.330900	0.224300	-0.751625
O15	O	0.451800	0.704800	0.496800	-0.751625
O16	O	0.507700	0.667300	0.382800	-0.751625
O17	O	0.340600	0.491800	0.446500	-0.751625
O18	O	0.277000	0.525600	0.561200	-0.751625
O19	O	0.648900	0.530500	0.163100	-0.751625
O20	O	0.669100	0.531900	0.275700	-0.751625
O21	O	0.295200	0.548200	0.003200	-0.751625
O22	O	0.332700	0.492300	0.117200	-0.751625
O23	O	0.508200	0.659400	0.053500	-0.751625
O24	O	0.474400	0.723000	0.938800	-0.751625
