data_KOJCUI_PM
_symmetry_space_group_name_H-M	'P1'
_cell_length_a	7.524000
_cell_length_b	18.325900
_cell_length_c	25.300000
_cell_angle_alpha	90.000000
_cell_angle_beta	90.000000
_cell_angle_gamma	90.000000
_symmetry_Int_Tables_number 1

loop_
_symmetry_equiv_pos_as_xyz
'x,y,z'

loop_
_atom_site_label
_atom_site_type_symbol
_atom_site_fract_x
_atom_site_fract_y
_atom_site_fract_z
_atom_site_charge
Mn1	Mn	0.264480	0.900730	0.517130	1.178849
Mn2	Mn	0.264480	0.099270	0.482870	1.178849
Mn3	Mn	0.764480	0.099270	0.517130	1.178849
Mn4	Mn	0.764480	0.900730	0.482870	1.178849
Mn5	Mn	0.764480	0.400730	0.017130	1.178849
Mn6	Mn	0.764480	0.599270	0.982870	1.178849
Mn7	Mn	0.264480	0.599270	0.017130	1.178849
Mn8	Mn	0.264480	0.400730	0.982870	1.178849
H1	H	0.829700	0.722600	0.585100	0.116313
H2	H	0.829700	0.277400	0.414900	0.116313
H3	H	0.329700	0.277400	0.585100	0.116313
H4	H	0.329700	0.722600	0.414900	0.116313
H5	H	0.329700	0.222600	0.085100	0.116313
H6	H	0.329700	0.777400	0.914900	0.116313
H7	H	0.829700	0.777400	0.085100	0.116313
H8	H	0.829700	0.222600	0.914900	0.116313
H9	H	0.349300	0.761800	0.649600	0.116313
H10	H	0.349300	0.238200	0.350400	0.116313
H11	H	0.849300	0.238200	0.649600	0.116313
H12	H	0.849300	0.761800	0.350400	0.116313
H13	H	0.849300	0.261800	0.149600	0.116313
H14	H	0.849300	0.738200	0.850400	0.116313
H15	H	0.349300	0.738200	0.149600	0.116313
H16	H	0.349300	0.261800	0.850400	0.116313
H17	H	0.539400	0.661400	0.876200	0.102794
H18	H	0.539400	0.338600	0.123800	0.102794
H19	H	0.039400	0.338600	0.876200	0.102794
H20	H	0.039400	0.661400	0.123800	0.102794
H21	H	0.039400	0.161400	0.376200	0.102794
H22	H	0.039400	0.838600	0.623800	0.102794
H23	H	0.539400	0.838600	0.376200	0.102794
H24	H	0.539400	0.161400	0.623800	0.102794
H25	H	0.627200	0.674600	0.788400	0.129239
H26	H	0.627200	0.325400	0.211600	0.129239
H27	H	0.127200	0.325400	0.788400	0.129239
H28	H	0.127200	0.674600	0.211600	0.129239
H29	H	0.127200	0.174600	0.288400	0.129239
H30	H	0.127200	0.825400	0.711600	0.129239
H31	H	0.627200	0.825400	0.288400	0.129239
H32	H	0.627200	0.174600	0.711600	0.129239
H33	H	0.530700	0.459000	0.763000	0.129239
H34	H	0.530700	0.541000	0.237000	0.129239
H35	H	0.030700	0.541000	0.763000	0.129239
H36	H	0.030700	0.459000	0.237000	0.129239
H37	H	0.030700	0.959000	0.263000	0.129239
H38	H	0.030700	0.041000	0.737000	0.129239
H39	H	0.530700	0.041000	0.263000	0.129239
H40	H	0.530700	0.959000	0.737000	0.129239
H41	H	0.432200	0.447400	0.849500	0.102794
H42	H	0.432200	0.552600	0.150500	0.102794
H43	H	0.932200	0.552600	0.849500	0.102794
H44	H	0.932200	0.447400	0.150500	0.102794
H45	H	0.932200	0.947400	0.349500	0.102794
H46	H	0.932200	0.052600	0.650500	0.102794
H47	H	0.432200	0.052600	0.349500	0.102794
H48	H	0.432200	0.947400	0.650500	0.102794
H49	H	0.733000	0.536000	0.711000	0.292986
H50	H	0.733000	0.464000	0.289000	0.292986
H51	H	0.233000	0.464000	0.711000	0.292986
H52	H	0.233000	0.536000	0.289000	0.292986
H53	H	0.233000	0.036000	0.211000	0.292986
H54	H	0.233000	0.964000	0.789000	0.292986
H55	H	0.733000	0.964000	0.211000	0.292986
H56	H	0.733000	0.036000	0.789000	0.292986
C1	C	0.583400	0.751000	0.611000	-0.137063
C2	C	0.583400	0.249000	0.389000	-0.137063
C3	C	0.083400	0.249000	0.611000	-0.137063
C4	C	0.083400	0.751000	0.389000	-0.137063
C5	C	0.083400	0.251000	0.111000	-0.137063
C6	C	0.083400	0.749000	0.889000	-0.137063
C7	C	0.583400	0.749000	0.111000	-0.137063
C8	C	0.583400	0.251000	0.889000	-0.137063
C9	C	0.738500	0.710200	0.609500	-0.015010
C10	C	0.738500	0.289800	0.390500	-0.015010
C11	C	0.238500	0.289800	0.609500	-0.015010
C12	C	0.238500	0.710200	0.390500	-0.015010
C13	C	0.238500	0.210200	0.109500	-0.015010
C14	C	0.238500	0.789800	0.890500	-0.015010
C15	C	0.738500	0.789800	0.109500	-0.015010
C16	C	0.738500	0.210200	0.890500	-0.015010
C17	C	0.761300	0.651600	0.643400	-0.074397
C18	C	0.761300	0.348400	0.356600	-0.074397
C19	C	0.261300	0.348400	0.643400	-0.074397
C20	C	0.261300	0.651600	0.356600	-0.074397
C21	C	0.261300	0.151600	0.143400	-0.074397
C22	C	0.261300	0.848400	0.856600	-0.074397
C23	C	0.761300	0.848400	0.143400	-0.074397
C24	C	0.761300	0.151600	0.856600	-0.074397
C25	C	0.632500	0.630700	0.681300	0.135092
C26	C	0.632500	0.369300	0.318700	0.135092
C27	C	0.132500	0.369300	0.681300	0.135092
C28	C	0.132500	0.630700	0.318700	0.135092
C29	C	0.132500	0.130700	0.181300	0.135092
C30	C	0.132500	0.869300	0.818700	0.135092
C31	C	0.632500	0.869300	0.181300	0.135092
C32	C	0.632500	0.130700	0.818700	0.135092
C33	C	0.480000	0.676100	0.681500	-0.074397
C34	C	0.480000	0.323900	0.318500	-0.074397
C35	C	0.980000	0.323900	0.681500	-0.074397
C36	C	0.980000	0.676100	0.318500	-0.074397
C37	C	0.980000	0.176100	0.181500	-0.074397
C38	C	0.980000	0.823900	0.818500	-0.074397
C39	C	0.480000	0.823900	0.181500	-0.074397
C40	C	0.480000	0.176100	0.818500	-0.074397
C41	C	0.455200	0.733700	0.647700	-0.015010
C42	C	0.455200	0.266300	0.352300	-0.015010
C43	C	0.955200	0.266300	0.647700	-0.015010
C44	C	0.955200	0.733700	0.352300	-0.015010
C45	C	0.955200	0.233700	0.147700	-0.015010
C46	C	0.955200	0.766300	0.852300	-0.015010
C47	C	0.455200	0.766300	0.147700	-0.015010
C48	C	0.455200	0.233700	0.852300	-0.015010
C49	C	0.553800	0.810900	0.570700	0.693819
C50	C	0.553800	0.189100	0.429300	0.693819
C51	C	0.053800	0.189100	0.570700	0.693819
C52	C	0.053800	0.810900	0.429300	0.693819
C53	C	0.053800	0.310900	0.070700	0.693819
C54	C	0.053800	0.689100	0.929300	0.693819
C55	C	0.553800	0.689100	0.070700	0.693819
C56	C	0.553800	0.310900	0.929300	0.693819
C57	C	0.479200	0.553100	0.872090	-0.172530
C58	C	0.479200	0.446900	0.127910	-0.172530
C59	C	0.979200	0.446900	0.872090	-0.172530
C60	C	0.979200	0.553100	0.127910	-0.172530
C61	C	0.979200	0.053100	0.372090	-0.172530
C62	C	0.979200	0.946900	0.627910	-0.172530
C63	C	0.479200	0.946900	0.372090	-0.172530
C64	C	0.479200	0.053100	0.627910	-0.172530
C65	C	0.536800	0.620400	0.853200	0.017825
C66	C	0.536800	0.379600	0.146800	0.017825
C67	C	0.036800	0.379600	0.853200	0.017825
C68	C	0.036800	0.620400	0.146800	0.017825
C69	C	0.036800	0.120400	0.353200	0.017825
C70	C	0.036800	0.879600	0.646800	0.017825
C71	C	0.536800	0.879600	0.353200	0.017825
C72	C	0.536800	0.120400	0.646800	0.017825
C73	C	0.590300	0.628200	0.801100	-0.197997
C74	C	0.590300	0.371800	0.198900	-0.197997
C75	C	0.090300	0.371800	0.801100	-0.197997
C76	C	0.090300	0.628200	0.198900	-0.197997
C77	C	0.090300	0.128200	0.301100	-0.197997
C78	C	0.090300	0.871800	0.698900	-0.197997
C79	C	0.590300	0.871800	0.301100	-0.197997
C80	C	0.590300	0.128200	0.698900	-0.197997
C81	C	0.590200	0.567900	0.766940	0.218980
C82	C	0.590200	0.432100	0.233060	0.218980
C83	C	0.090200	0.432100	0.766940	0.218980
C84	C	0.090200	0.567900	0.233060	0.218980
C85	C	0.090200	0.067900	0.266940	0.218980
C86	C	0.090200	0.932100	0.733060	0.218980
C87	C	0.590200	0.932100	0.266940	0.218980
C88	C	0.590200	0.067900	0.733060	0.218980
C89	C	0.531500	0.500200	0.785830	-0.197997
C90	C	0.531500	0.499800	0.214170	-0.197997
C91	C	0.031500	0.499800	0.785830	-0.197997
C92	C	0.031500	0.500200	0.214170	-0.197997
C93	C	0.031500	0.000200	0.285830	-0.197997
C94	C	0.031500	0.999800	0.714170	-0.197997
C95	C	0.531500	0.999800	0.285830	-0.197997
C96	C	0.531500	0.000200	0.714170	-0.197997
C97	C	0.474800	0.493200	0.837310	0.017825
C98	C	0.474800	0.506800	0.162690	0.017825
C99	C	0.974800	0.506800	0.837310	0.017825
C100	C	0.974800	0.493200	0.162690	0.017825
C101	C	0.974800	0.993200	0.337310	0.017825
C102	C	0.974800	0.006800	0.662690	0.017825
C103	C	0.474800	0.006800	0.337310	0.017825
C104	C	0.474800	0.993200	0.662690	0.017825
C105	C	0.421500	0.544800	0.926690	0.701911
C106	C	0.421500	0.455200	0.073310	0.701911
C107	C	0.921500	0.455200	0.926690	0.701911
C108	C	0.921500	0.544800	0.073310	0.701911
C109	C	0.921500	0.044800	0.426690	0.701911
C110	C	0.921500	0.955200	0.573310	0.701911
C111	C	0.421500	0.955200	0.426690	0.701911
C112	C	0.421500	0.044800	0.573310	0.701911
N1	N	0.926700	0.609900	0.637700	0.592960
N2	N	0.926700	0.390100	0.362300	0.592960
N3	N	0.426700	0.390100	0.637700	0.592960
N4	N	0.426700	0.609900	0.362300	0.592960
N5	N	0.426700	0.109900	0.137700	0.592960
N6	N	0.426700	0.890100	0.862300	0.592960
N7	N	0.926700	0.890100	0.137700	0.592960
N8	N	0.926700	0.109900	0.862300	0.592960
N9	N	0.323200	0.655900	0.713400	0.592960
N10	N	0.323200	0.344100	0.286600	0.592960
N11	N	0.823200	0.344100	0.713400	0.592960
N12	N	0.823200	0.655900	0.286600	0.592960
N13	N	0.823200	0.155900	0.213400	0.592960
N14	N	0.823200	0.844100	0.786600	0.592960
N15	N	0.323200	0.844100	0.213400	0.592960
N16	N	0.323200	0.155900	0.786600	0.592960
N17	N	0.655800	0.573400	0.715400	-0.240323
N18	N	0.655800	0.426600	0.284600	-0.240323
N19	N	0.155800	0.426600	0.715400	-0.240323
N20	N	0.155800	0.573400	0.284600	-0.240323
N21	N	0.155800	0.073400	0.215400	-0.240323
N22	N	0.155800	0.926600	0.784600	-0.240323
N23	N	0.655800	0.926600	0.215400	-0.240323
N24	N	0.655800	0.073400	0.784600	-0.240323
O1	O	0.055700	0.643900	0.620500	-0.374658
O2	O	0.055700	0.356100	0.379500	-0.374658
O3	O	0.555700	0.356100	0.620500	-0.374658
O4	O	0.555700	0.643900	0.379500	-0.374658
O5	O	0.555700	0.143900	0.120500	-0.374658
O6	O	0.555700	0.856100	0.879500	-0.374658
O7	O	0.055700	0.856100	0.120500	-0.374658
O8	O	0.055700	0.143900	0.879500	-0.374658
O9	O	0.930200	0.546900	0.651000	-0.374658
O10	O	0.930200	0.453100	0.349000	-0.374658
O11	O	0.430200	0.453100	0.651000	-0.374658
O12	O	0.430200	0.546900	0.349000	-0.374658
O13	O	0.430200	0.046900	0.151000	-0.374658
O14	O	0.430200	0.953100	0.849000	-0.374658
O15	O	0.930200	0.953100	0.151000	-0.374658
O16	O	0.930200	0.046900	0.849000	-0.374658
O17	O	0.278800	0.592500	0.714100	-0.374658
O18	O	0.278800	0.407500	0.285900	-0.374658
O19	O	0.778800	0.407500	0.714100	-0.374658
O20	O	0.778800	0.592500	0.285900	-0.374658
O21	O	0.778800	0.092500	0.214100	-0.374658
O22	O	0.778800	0.907500	0.785900	-0.374658
O23	O	0.278800	0.907500	0.214100	-0.374658
O24	O	0.278800	0.092500	0.785900	-0.374658
O25	O	0.246100	0.705100	0.736300	-0.374658
O26	O	0.246100	0.294900	0.263700	-0.374658
O27	O	0.746100	0.294900	0.736300	-0.374658
O28	O	0.746100	0.705100	0.263700	-0.374658
O29	O	0.746100	0.205100	0.236300	-0.374658
O30	O	0.746100	0.794900	0.763700	-0.374658
O31	O	0.246100	0.794900	0.236300	-0.374658
O32	O	0.246100	0.205100	0.763700	-0.374658
O33	O	0.401000	0.838300	0.571000	-0.625314
O34	O	0.401000	0.161700	0.429000	-0.625314
O35	O	0.901000	0.161700	0.571000	-0.625314
O36	O	0.901000	0.838300	0.429000	-0.625314
O37	O	0.901000	0.338300	0.071000	-0.625314
O38	O	0.901000	0.661700	0.929000	-0.625314
O39	O	0.401000	0.661700	0.071000	-0.625314
O40	O	0.401000	0.338300	0.929000	-0.625314
O41	O	0.678500	0.826900	0.540600	-0.625314
O42	O	0.678500	0.173100	0.459400	-0.625314
O43	O	0.178500	0.173100	0.540600	-0.625314
O44	O	0.178500	0.826900	0.459400	-0.625314
O45	O	0.178500	0.326900	0.040600	-0.625314
O46	O	0.178500	0.673100	0.959400	-0.625314
O47	O	0.678500	0.673100	0.040600	-0.625314
O48	O	0.678500	0.326900	0.959400	-0.625314
O49	O	0.490400	0.585600	0.962400	-0.671829
O50	O	0.490400	0.414400	0.037600	-0.671829
O51	O	0.990400	0.414400	0.962400	-0.671829
O52	O	0.990400	0.585600	0.037600	-0.671829
O53	O	0.990400	0.085600	0.462400	-0.671829
O54	O	0.990400	0.914400	0.537600	-0.671829
O55	O	0.490400	0.914400	0.462400	-0.671829
O56	O	0.490400	0.085600	0.537600	-0.671829
O57	O	0.298800	0.501000	0.938670	-0.594080
O58	O	0.298800	0.499000	0.061330	-0.594080
O59	O	0.798800	0.499000	0.938670	-0.594080
O60	O	0.798800	0.501000	0.061330	-0.594080
O61	O	0.798800	0.001000	0.438670	-0.594080
O62	O	0.798800	0.999000	0.561330	-0.594080
O63	O	0.298800	0.999000	0.438670	-0.594080
O64	O	0.298800	0.001000	0.561330	-0.594080
