data_KOMHAW_clean_PM
_symmetry_space_group_name_H-M	'P1'
_cell_length_a	9.043600
_cell_length_b	9.730800
_cell_length_c	17.391600
_cell_angle_alpha	94.430901
_cell_angle_beta	105.070002
_cell_angle_gamma	90.000000
_symmetry_Int_Tables_number 1

loop_
_symmetry_equiv_pos_as_xyz
'x,y,z'

loop_
_atom_site_label
_atom_site_type_symbol
_atom_site_fract_x
_atom_site_fract_y
_atom_site_fract_z
_atom_site_charge
Zn1	Zn	0.781660	0.759610	0.164260	0.879671
Zn2	Zn	0.966590	0.553040	0.342920	0.814431
Zn3	Zn	0.617400	0.740390	0.835740	0.879671
Zn4	Zn	0.623670	0.946960	0.657080	0.814431
Zn5	Zn	0.218340	0.240390	0.835740	0.879671
Zn6	Zn	0.033410	0.446960	0.657080	0.814431
Zn7	Zn	0.382600	0.259610	0.164260	0.879671
Zn8	Zn	0.376330	0.053040	0.342920	0.814431
H1	H	0.479900	0.640000	0.069200	0.333212
H2	H	0.379200	0.518000	0.067400	0.333212
H3	H	0.132200	0.047600	0.184200	0.333212
H4	H	0.992000	0.967900	0.138800	0.333212
H5	H	0.698300	0.334800	0.282000	0.081399
H6	H	0.226700	0.789000	0.399400	0.078646
H7	H	0.410700	0.860000	0.930800	0.333212
H8	H	0.311800	0.982000	0.932600	0.333212
H9	H	0.948000	0.452400	0.815800	0.333212
H10	H	0.853200	0.532100	0.861200	0.333212
H11	H	0.416300	0.165200	0.718000	0.081399
H12	H	0.827300	0.711000	0.600600	0.078646
H13	H	0.520100	0.360000	0.930800	0.333212
H14	H	0.620800	0.482000	0.932600	0.333212
H15	H	0.867800	0.952400	0.815800	0.333212
H16	H	0.008000	0.032100	0.861200	0.333212
H17	H	0.301700	0.665200	0.718000	0.081399
H18	H	0.773300	0.211000	0.600600	0.078646
H19	H	0.589300	0.140000	0.069200	0.333212
H20	H	0.688200	0.018000	0.067400	0.333212
H21	H	0.052000	0.547600	0.184200	0.333212
H22	H	0.146800	0.467900	0.138800	0.333212
H23	H	0.583700	0.834800	0.282000	0.081399
H24	H	0.172700	0.289000	0.399400	0.078646
C1	C	0.567400	0.518900	0.152200	0.655830
C2	C	0.677250	0.403400	0.246500	0.266403
C3	C	0.083940	0.896600	0.241880	0.648888
C4	C	0.166480	0.806800	0.349160	0.266727
C5	C	0.931740	0.451200	0.486480	0.491230
C6	C	0.415200	0.981100	0.847800	0.655830
C7	C	0.430750	0.096600	0.753500	0.266403
C8	C	0.842060	0.603400	0.758120	0.648888
C9	C	0.817320	0.693200	0.650840	0.266727
C10	C	0.445260	0.048800	0.513520	0.491230
C11	C	0.432600	0.481100	0.847800	0.655830
C12	C	0.322750	0.596600	0.753500	0.266403
C13	C	0.916060	0.103400	0.758120	0.648888
C14	C	0.833520	0.193200	0.650840	0.266727
C15	C	0.068260	0.548800	0.513520	0.491230
C16	C	0.584800	0.018900	0.152200	0.655830
C17	C	0.569250	0.903400	0.246500	0.266403
C18	C	0.157940	0.396600	0.241880	0.648888
C19	C	0.182680	0.306800	0.349160	0.266727
C20	C	0.554740	0.951200	0.486480	0.491230
C21	C	0.736800	0.750000	0.000000	0.885441
C22	C	0.263200	0.250000	0.000000	0.885441
N1	N	0.698880	0.584100	0.188360	-0.414973
N2	N	0.768490	0.506900	0.250580	-0.254330
N3	N	0.549130	0.403500	0.186460	-0.547252
N4	N	0.462590	0.564600	0.088380	-0.734192
N5	N	0.988070	0.793400	0.240940	-0.414080
N6	N	0.044130	0.733800	0.311260	-0.252678
N7	N	0.196280	0.910400	0.307960	-0.554784
N8	N	0.067330	0.981200	0.180660	-0.735714
N9	N	0.510520	0.915900	0.811640	-0.414973
N10	N	0.517910	0.993100	0.749420	-0.254330
N11	N	0.362670	0.096500	0.813540	-0.547252
N12	N	0.374210	0.935400	0.911620	-0.734192
N13	N	0.747130	0.706600	0.759060	-0.414080
N14	N	0.732870	0.766200	0.688740	-0.252678
N15	N	0.888320	0.589600	0.692040	-0.554784
N16	N	0.886670	0.518800	0.819340	-0.735714
N17	N	0.301120	0.415900	0.811640	-0.414973
N18	N	0.231510	0.493100	0.749420	-0.254330
N19	N	0.450870	0.596500	0.813540	-0.547252
N20	N	0.537410	0.435400	0.911620	-0.734192
N21	N	0.011930	0.206600	0.759060	-0.414080
N22	N	0.955870	0.266200	0.688740	-0.252678
N23	N	0.803720	0.089600	0.692040	-0.554784
N24	N	0.932670	0.018800	0.819340	-0.735714
N25	N	0.489480	0.084100	0.188360	-0.414973
N26	N	0.482090	0.006900	0.250580	-0.254330
N27	N	0.637330	0.903500	0.186460	-0.547252
N28	N	0.625790	0.064600	0.088380	-0.734192
N29	N	0.252870	0.293400	0.240940	-0.414080
N30	N	0.267130	0.233800	0.311260	-0.252678
N31	N	0.111680	0.410400	0.307960	-0.554784
N32	N	0.113330	0.481200	0.180660	-0.735714
O1	O	0.842550	0.759200	0.065700	-0.644915
O2	O	0.877470	0.424400	0.413740	-0.532212
O3	O	0.887030	0.397500	0.540060	-0.532212
O4	O	0.776850	0.740800	0.934300	-0.644915
O5	O	0.463730	0.075600	0.586260	-0.532212
O6	O	0.346970	0.102500	0.459940	-0.532212
O7	O	0.157450	0.240800	0.934300	-0.644915
O8	O	0.122530	0.575600	0.586260	-0.532212
O9	O	0.112970	0.602500	0.459940	-0.532212
O10	O	0.223150	0.259200	0.065700	-0.644915
O11	O	0.536270	0.924400	0.413740	-0.532212
O12	O	0.653030	0.897500	0.540060	-0.532212
O13	O	0.598000	0.750000	0.000000	-0.682906
O14	O	0.402000	0.250000	0.000000	-0.682906
