data_KUDLUR_clean_PM
_symmetry_space_group_name_H-M	'P1'
_cell_length_a	13.350300
_cell_length_b	13.350300
_cell_length_c	14.385300
_cell_angle_alpha	90.000000
_cell_angle_beta	90.000000
_cell_angle_gamma	120.000000
_symmetry_Int_Tables_number 1

loop_
_symmetry_equiv_pos_as_xyz
'x,y,z'

loop_
_atom_site_label
_atom_site_type_symbol
_atom_site_fract_x
_atom_site_fract_y
_atom_site_fract_z
_atom_site_charge
Dy1	Dy	0.333330	0.666660	0.832500	2.225496
Dy2	Dy	0.666670	0.333340	0.667500	2.225496
Dy3	Dy	0.666670	0.333340	0.167500	2.225496
Dy4	Dy	0.333330	0.666660	0.332500	2.225496
Cu1	Cu	0.000000	0.500000	0.000000	0.747151
Cu2	Cu	0.500000	0.000000	0.000000	0.747151
Cu3	Cu	0.500000	0.500000	0.000000	0.747151
Cu4	Cu	0.500000	0.500000	0.500000	0.747151
Cu5	Cu	0.500000	0.000000	0.500000	0.747151
Cu6	Cu	0.000000	0.500000	0.500000	0.747151
H1	H	0.976200	0.649800	0.078400	0.252637
H2	H	0.138000	0.820200	0.021900	0.131821
H3	H	0.039800	0.747000	0.950000	0.131821
H4	H	0.085800	0.687600	0.194400	0.131706
H5	H	0.194000	0.734300	0.129000	0.131706
H6	H	0.673600	0.023800	0.078400	0.252637
H7	H	0.682200	0.862000	0.021900	0.131821
H8	H	0.707200	0.960200	0.950000	0.131821
H9	H	0.601800	0.914200	0.194400	0.131706
H10	H	0.540300	0.806000	0.129000	0.131706
H11	H	0.350200	0.326400	0.078400	0.252637
H12	H	0.179800	0.317800	0.021900	0.131821
H13	H	0.253000	0.292800	0.950000	0.131821
H14	H	0.312400	0.398200	0.194400	0.131706
H15	H	0.265700	0.459700	0.129000	0.131706
H16	H	0.326400	0.350200	0.421600	0.252637
H17	H	0.317800	0.179800	0.478100	0.131821
H18	H	0.292800	0.253000	0.550000	0.131821
H19	H	0.398200	0.312400	0.305600	0.131706
H20	H	0.459700	0.265700	0.371000	0.131706
H21	H	0.649800	0.976200	0.421600	0.252637
H22	H	0.820200	0.138000	0.478100	0.131821
H23	H	0.747000	0.039800	0.550000	0.131821
H24	H	0.687600	0.085800	0.305600	0.131706
H25	H	0.734300	0.194000	0.371000	0.131706
H26	H	0.023800	0.673600	0.421600	0.252637
H27	H	0.862000	0.682200	0.478100	0.131821
H28	H	0.960200	0.707200	0.550000	0.131821
H29	H	0.914200	0.601800	0.305600	0.131706
H30	H	0.806000	0.540300	0.371000	0.131706
H31	H	0.023800	0.350200	0.921600	0.252637
H32	H	0.862000	0.179800	0.978100	0.131821
H33	H	0.960200	0.253000	0.050000	0.131821
H34	H	0.914200	0.312400	0.805600	0.131706
H35	H	0.806000	0.265700	0.871000	0.131706
H36	H	0.326400	0.976200	0.921600	0.252637
H37	H	0.317800	0.138000	0.978100	0.131821
H38	H	0.292800	0.039800	0.050000	0.131821
H39	H	0.398200	0.085800	0.805600	0.131706
H40	H	0.459700	0.194000	0.871000	0.131706
H41	H	0.649800	0.673600	0.921600	0.252637
H42	H	0.820200	0.682200	0.978100	0.131821
H43	H	0.747000	0.707200	0.050000	0.131821
H44	H	0.687600	0.601800	0.805600	0.131706
H45	H	0.734300	0.540300	0.871000	0.131706
H46	H	0.673600	0.649800	0.578400	0.252637
H47	H	0.682200	0.820200	0.521900	0.131821
H48	H	0.707200	0.747000	0.450000	0.131821
H49	H	0.601800	0.687600	0.694400	0.131706
H50	H	0.540300	0.734300	0.629000	0.131706
H51	H	0.350200	0.023800	0.578400	0.252637
H52	H	0.179800	0.862000	0.521900	0.131821
H53	H	0.253000	0.960200	0.450000	0.131821
H54	H	0.312400	0.914200	0.694400	0.131706
H55	H	0.265700	0.806000	0.629000	0.131706
H56	H	0.976200	0.326400	0.578400	0.252637
H57	H	0.138000	0.317800	0.521900	0.131821
H58	H	0.039800	0.292800	0.450000	0.131821
H59	H	0.085800	0.398200	0.694400	0.131706
H60	H	0.194000	0.459700	0.629000	0.131706
C1	C	0.185000	0.731700	0.930100	0.691702
C2	C	0.098200	0.746500	0.989800	-0.184737
C3	C	0.126300	0.562900	0.160900	0.725571
C4	C	0.117200	0.669300	0.140500	-0.181269
C5	C	0.546700	0.815000	0.930100	0.691702
C6	C	0.648300	0.901800	0.989800	-0.184737
C7	C	0.436600	0.873700	0.160900	0.725571
C8	C	0.552100	0.882800	0.140500	-0.181269
C9	C	0.268300	0.453300	0.930100	0.691702
C10	C	0.253500	0.351700	0.989800	-0.184737
C11	C	0.437100	0.563400	0.160900	0.725571
C12	C	0.330700	0.447900	0.140500	-0.181269
C13	C	0.453300	0.268300	0.569900	0.691702
C14	C	0.351700	0.253500	0.510200	-0.184737
C15	C	0.563400	0.437100	0.339100	0.725571
C16	C	0.447900	0.330700	0.359500	-0.181269
C17	C	0.731700	0.185000	0.569900	0.691702
C18	C	0.746500	0.098200	0.510200	-0.184737
C19	C	0.562900	0.126300	0.339100	0.725571
C20	C	0.669300	0.117200	0.359500	-0.181269
C21	C	0.815000	0.546700	0.569900	0.691702
C22	C	0.901800	0.648300	0.510200	-0.184737
C23	C	0.873700	0.436600	0.339100	0.725571
C24	C	0.882800	0.552100	0.359500	-0.181269
C25	C	0.815000	0.268300	0.069900	0.691702
C26	C	0.901800	0.253500	0.010200	-0.184737
C27	C	0.873700	0.437100	0.839100	0.725571
C28	C	0.882800	0.330700	0.859500	-0.181269
C29	C	0.453300	0.185000	0.069900	0.691702
C30	C	0.351700	0.098200	0.010200	-0.184737
C31	C	0.563400	0.126300	0.839100	0.725571
C32	C	0.447900	0.117200	0.859500	-0.181269
C33	C	0.731700	0.546700	0.069900	0.691702
C34	C	0.746500	0.648300	0.010200	-0.184737
C35	C	0.562900	0.436600	0.839100	0.725571
C36	C	0.669300	0.552100	0.859500	-0.181269
C37	C	0.546700	0.731700	0.430100	0.691702
C38	C	0.648300	0.746500	0.489800	-0.184737
C39	C	0.436600	0.562900	0.660900	0.725571
C40	C	0.552100	0.669300	0.640500	-0.181269
C41	C	0.268300	0.815000	0.430100	0.691702
C42	C	0.253500	0.901800	0.489800	-0.184737
C43	C	0.437100	0.873700	0.660900	0.725571
C44	C	0.330700	0.882800	0.640500	-0.181269
C45	C	0.185000	0.453300	0.430100	0.691702
C46	C	0.098200	0.351700	0.489800	-0.184737
C47	C	0.126300	0.563400	0.660900	0.725571
C48	C	0.117200	0.447900	0.640500	-0.181269
N1	N	0.042200	0.652600	0.058200	-0.269352
N2	N	0.610400	0.957800	0.058200	-0.269352
N3	N	0.347400	0.389600	0.058200	-0.269352
N4	N	0.389600	0.347400	0.441800	-0.269352
N5	N	0.652600	0.042200	0.441800	-0.269352
N6	N	0.957800	0.610400	0.441800	-0.269352
N7	N	0.957800	0.347400	0.941800	-0.269352
N8	N	0.389600	0.042200	0.941800	-0.269352
N9	N	0.652600	0.610400	0.941800	-0.269352
N10	N	0.610400	0.652600	0.558200	-0.269352
N11	N	0.347400	0.957800	0.558200	-0.269352
N12	N	0.042200	0.389600	0.558200	-0.269352
O1	O	0.188800	0.639900	0.940500	-0.703633
O2	O	0.245700	0.806500	0.872000	-0.703633
O3	O	0.184500	0.565400	0.229500	-0.710269
O4	O	0.075100	0.476800	0.108200	-0.559480
O5	O	0.451100	0.811200	0.940500	-0.703633
O6	O	0.560800	0.754300	0.872000	-0.703633
O7	O	0.380900	0.815500	0.229500	-0.710269
O8	O	0.401700	0.924900	0.108200	-0.559480
O9	O	0.360100	0.548900	0.940500	-0.703633
O10	O	0.193500	0.439200	0.872000	-0.703633
O11	O	0.434600	0.619100	0.229500	-0.710269
O12	O	0.523200	0.598300	0.108200	-0.559480
O13	O	0.548900	0.360100	0.559500	-0.703633
O14	O	0.439200	0.193500	0.628000	-0.703633
O15	O	0.619100	0.434600	0.270500	-0.710269
O16	O	0.598300	0.523200	0.391800	-0.559480
O17	O	0.639900	0.188800	0.559500	-0.703633
O18	O	0.806500	0.245700	0.628000	-0.703633
O19	O	0.565400	0.184500	0.270500	-0.710269
O20	O	0.476800	0.075100	0.391800	-0.559480
O21	O	0.811200	0.451100	0.559500	-0.703633
O22	O	0.754300	0.560800	0.628000	-0.703633
O23	O	0.815500	0.380900	0.270500	-0.710269
O24	O	0.924900	0.401700	0.391800	-0.559480
O25	O	0.811200	0.360100	0.059500	-0.703633
O26	O	0.754300	0.193500	0.128000	-0.703633
O27	O	0.815500	0.434600	0.770500	-0.710269
O28	O	0.924900	0.523200	0.891800	-0.559480
O29	O	0.548900	0.188800	0.059500	-0.703633
O30	O	0.439200	0.245700	0.128000	-0.703633
O31	O	0.619100	0.184500	0.770500	-0.710269
O32	O	0.598300	0.075100	0.891800	-0.559480
O33	O	0.639900	0.451100	0.059500	-0.703633
O34	O	0.806500	0.560800	0.128000	-0.703633
O35	O	0.565400	0.380900	0.770500	-0.710269
O36	O	0.476800	0.401700	0.891800	-0.559480
O37	O	0.451100	0.639900	0.440500	-0.703633
O38	O	0.560800	0.806500	0.372000	-0.703633
O39	O	0.380900	0.565400	0.729500	-0.710269
O40	O	0.401700	0.476800	0.608200	-0.559480
O41	O	0.360100	0.811200	0.440500	-0.703633
O42	O	0.193500	0.754300	0.372000	-0.703633
O43	O	0.434600	0.815500	0.729500	-0.710269
O44	O	0.523200	0.924900	0.608200	-0.559480
O45	O	0.188800	0.548900	0.440500	-0.703633
O46	O	0.245700	0.439200	0.372000	-0.703633
O47	O	0.184500	0.619100	0.729500	-0.710269
O48	O	0.075100	0.598300	0.608200	-0.559480
