data_LABPUB_clean_PM
_symmetry_space_group_name_H-M	'P1'
_cell_length_a	7.090000
_cell_length_b	20.910000
_cell_length_c	27.823000
_cell_angle_alpha	107.611000
_cell_angle_beta	90.000000
_cell_angle_gamma	90.000000
_symmetry_Int_Tables_number 1

loop_
_symmetry_equiv_pos_as_xyz
'x,y,z'

loop_
_atom_site_label
_atom_site_type_symbol
_atom_site_fract_x
_atom_site_fract_y
_atom_site_fract_z
_atom_site_charge
Sm1	Sm	0.872770	0.910350	0.661490	2.368671
Sm2	Sm	0.086650	0.746950	0.206750	2.343609
Sm3	Sm	0.372770	0.089650	0.838510	2.368671
Sm4	Sm	0.586650	0.253050	0.293250	2.343609
Sm5	Sm	0.127230	0.089650	0.338510	2.368671
Sm6	Sm	0.913350	0.253050	0.793250	2.343609
Sm7	Sm	0.627230	0.910350	0.161490	2.368671
Sm8	Sm	0.413350	0.746950	0.706750	2.343609
P1	P	0.959370	0.917790	0.272720	1.603200
P2	P	0.913640	0.750470	0.679510	1.562497
P3	P	0.377530	0.863320	0.626310	1.564573
P4	P	0.459370	0.082210	0.227280	1.603200
P5	P	0.413640	0.249530	0.820490	1.562497
P6	P	0.877530	0.136680	0.873690	1.564573
P7	P	0.040630	0.082210	0.727280	1.603200
P8	P	0.086360	0.249530	0.320490	1.562497
P9	P	0.622470	0.136680	0.373690	1.564573
P10	P	0.540630	0.917790	0.772720	1.603200
P11	P	0.586360	0.750470	0.179510	1.562497
P12	P	0.122470	0.863320	0.126310	1.564573
H1	H	0.650100	0.987500	0.323300	0.283273
H2	H	0.812000	0.620700	0.686200	0.275023
H3	H	0.017000	0.619600	0.688100	0.275023
H4	H	0.160500	0.765200	0.585500	0.275023
H5	H	0.073900	0.793900	0.549600	0.275023
H6	H	0.883400	0.903100	0.350200	0.149585
H7	H	0.752000	0.857900	0.308000	0.149585
H8	H	0.432000	0.980600	0.382600	0.087952
H9	H	0.445000	0.903000	0.356700	0.087952
H10	H	0.551500	0.837000	0.405000	0.105596
H11	H	0.683900	0.823900	0.477900	0.100608
H12	H	0.818200	0.018200	0.523200	0.100608
H13	H	0.698700	0.030300	0.449400	0.105596
H14	H	0.822300	0.656000	0.614900	0.162349
H15	H	0.042700	0.657900	0.619700	0.162349
H16	H	0.029300	0.535000	0.611300	0.106666
H17	H	0.807700	0.535500	0.610500	0.106666
H18	H	0.633600	0.493300	0.673600	0.105596
H19	H	0.636200	0.428500	0.727400	0.100608
H20	H	0.193100	0.407700	0.711700	0.100608
H21	H	0.191800	0.473100	0.658200	0.105596
H22	H	0.991400	0.765800	0.381800	0.099973
H23	H	0.953700	0.748500	0.459600	0.105596
H24	H	0.293900	0.680800	0.523200	0.106666
H25	H	0.074300	0.680900	0.516200	0.106666
H26	H	0.453700	0.791200	0.546000	0.162349
H27	H	0.319600	0.848600	0.540500	0.162349
H28	H	0.480000	0.680400	0.452900	0.105596
H29	H	0.519800	0.696600	0.374700	0.099973
H30	H	0.454400	0.749900	0.276900	0.405027
H31	H	0.150100	0.012500	0.176700	0.283273
H32	H	0.312000	0.379300	0.813800	0.275023
H33	H	0.517000	0.380400	0.811900	0.275023
H34	H	0.660500	0.234800	0.914500	0.275023
H35	H	0.573900	0.206100	0.950400	0.275023
H36	H	0.383400	0.096900	0.149800	0.149585
H37	H	0.252000	0.142100	0.192000	0.149585
H38	H	0.932000	0.019400	0.117400	0.087952
H39	H	0.945000	0.097000	0.143300	0.087952
H40	H	0.051500	0.163000	0.095000	0.105596
H41	H	0.183900	0.176100	0.022100	0.100608
H42	H	0.318200	0.981800	0.976800	0.100608
H43	H	0.198700	0.969700	0.050600	0.105596
H44	H	0.322300	0.344000	0.885100	0.162349
H45	H	0.542700	0.342100	0.880300	0.162349
H46	H	0.529300	0.465000	0.888700	0.106666
H47	H	0.307700	0.464500	0.889500	0.106666
H48	H	0.133600	0.506700	0.826400	0.105596
H49	H	0.136200	0.571500	0.772600	0.100608
H50	H	0.693100	0.592300	0.788300	0.100608
H51	H	0.691800	0.526900	0.841800	0.105596
H52	H	0.491400	0.234200	0.118200	0.099973
H53	H	0.453700	0.251500	0.040400	0.105596
H54	H	0.793900	0.319200	0.976800	0.106666
H55	H	0.574300	0.319100	0.983800	0.106666
H56	H	0.953700	0.208800	0.954000	0.162349
H57	H	0.819600	0.151400	0.959500	0.162349
H58	H	0.980000	0.319600	0.047100	0.105596
H59	H	0.019800	0.303400	0.125300	0.099973
H60	H	0.954400	0.250100	0.223100	0.405027
H61	H	0.349900	0.012500	0.676700	0.283273
H62	H	0.188000	0.379300	0.313800	0.275023
H63	H	0.983000	0.380400	0.311900	0.275023
H64	H	0.839500	0.234800	0.414500	0.275023
H65	H	0.926100	0.206100	0.450400	0.275023
H66	H	0.116600	0.096900	0.649800	0.149585
H67	H	0.248000	0.142100	0.692000	0.149585
H68	H	0.568000	0.019400	0.617400	0.087952
H69	H	0.555000	0.097000	0.643300	0.087952
H70	H	0.448500	0.163000	0.595000	0.105596
H71	H	0.316100	0.176100	0.522100	0.100608
H72	H	0.181800	0.981800	0.476800	0.100608
H73	H	0.301300	0.969700	0.550600	0.105596
H74	H	0.177700	0.344000	0.385100	0.162349
H75	H	0.957300	0.342100	0.380300	0.162349
H76	H	0.970700	0.465000	0.388700	0.106666
H77	H	0.192300	0.464500	0.389500	0.106666
H78	H	0.366400	0.506700	0.326400	0.105596
H79	H	0.363800	0.571500	0.272600	0.100608
H80	H	0.806900	0.592300	0.288300	0.100608
H81	H	0.808200	0.526900	0.341800	0.105596
H82	H	0.008600	0.234200	0.618200	0.099973
H83	H	0.046300	0.251500	0.540400	0.105596
H84	H	0.706100	0.319200	0.476800	0.106666
H85	H	0.925700	0.319100	0.483800	0.106666
H86	H	0.546300	0.208800	0.454000	0.162349
H87	H	0.680400	0.151400	0.459500	0.162349
H88	H	0.520000	0.319600	0.547100	0.105596
H89	H	0.480200	0.303400	0.625300	0.099973
H90	H	0.545600	0.250100	0.723100	0.405027
H91	H	0.849900	0.987500	0.823300	0.283273
H92	H	0.688000	0.620700	0.186200	0.275023
H93	H	0.483000	0.619600	0.188100	0.275023
H94	H	0.339500	0.765200	0.085500	0.275023
H95	H	0.426100	0.793900	0.049600	0.275023
H96	H	0.616600	0.903100	0.850200	0.149585
H97	H	0.748000	0.857900	0.808000	0.149585
H98	H	0.068000	0.980600	0.882600	0.087952
H99	H	0.055000	0.903000	0.856700	0.087952
H100	H	0.948500	0.837000	0.905000	0.105596
H101	H	0.816100	0.823900	0.977900	0.100608
H102	H	0.681800	0.018200	0.023200	0.100608
H103	H	0.801300	0.030300	0.949400	0.105596
H104	H	0.677700	0.656000	0.114900	0.162349
H105	H	0.457300	0.657900	0.119700	0.162349
H106	H	0.470700	0.535000	0.111300	0.106666
H107	H	0.692300	0.535500	0.110500	0.106666
H108	H	0.866400	0.493300	0.173600	0.105596
H109	H	0.863800	0.428500	0.227400	0.100608
H110	H	0.306900	0.407700	0.211700	0.100608
H111	H	0.308200	0.473100	0.158200	0.105596
H112	H	0.508600	0.765800	0.881800	0.099973
H113	H	0.546300	0.748500	0.959600	0.105596
H114	H	0.206100	0.680800	0.023200	0.106666
H115	H	0.425700	0.680900	0.016200	0.106666
H116	H	0.046300	0.791200	0.046000	0.162349
H117	H	0.180400	0.848600	0.040500	0.162349
H118	H	0.020000	0.680400	0.952900	0.105596
H119	H	0.980200	0.696600	0.874700	0.099973
H120	H	0.045600	0.749900	0.776900	0.405027
C1	C	0.808600	0.902100	0.320800	-0.454117
C2	C	0.518300	0.942900	0.372790	0.024641
C3	C	0.610000	0.934700	0.419460	0.043975
C4	C	0.606900	0.873600	0.428400	-0.146397
C5	C	0.686200	0.865700	0.472500	-0.034036
C6	C	0.766900	0.919400	0.507810	-0.094738
C7	C	0.767200	0.981200	0.499100	-0.034036
C8	C	0.693000	0.988800	0.455100	-0.146397
C9	C	0.844800	0.912200	0.556600	0.566242
C10	C	0.926000	0.664100	0.638700	-0.506750
C11	C	0.917300	0.542600	0.632400	-0.061306
C12	C	0.913900	0.493600	0.663100	0.042255
C13	C	0.747500	0.477800	0.682300	-0.141569
C14	C	0.749500	0.438800	0.714600	-0.034036
C15	C	0.915400	0.415000	0.728200	-0.096103
C16	C	0.080600	0.426500	0.705300	-0.034036
C17	C	0.080000	0.465600	0.673200	-0.141569
C18	C	0.918100	0.377000	0.765900	0.570595
C19	C	0.278100	0.745100	0.320600	0.706574
C20	C	0.259500	0.733500	0.371000	-0.153689
C21	C	0.090600	0.748800	0.396100	-0.025508
C22	C	0.068400	0.738700	0.442800	-0.145135
C23	C	0.215500	0.714300	0.464300	0.042255
C24	C	0.188900	0.706100	0.515900	-0.061306
C25	C	0.342300	0.817400	0.559510	-0.506750
C26	C	0.381800	0.698100	0.438700	-0.145135
C27	C	0.406000	0.707600	0.391800	-0.025508
C28	C	0.308600	0.097900	0.179200	-0.454117
C29	C	0.018300	0.057100	0.127210	0.024641
C30	C	0.110000	0.065300	0.080540	0.043975
C31	C	0.106900	0.126400	0.071600	-0.146397
C32	C	0.186200	0.134300	0.027500	-0.034036
C33	C	0.266900	0.080600	0.992190	-0.094738
C34	C	0.267200	0.018800	0.000900	-0.034036
C35	C	0.193000	0.011200	0.044900	-0.146397
C36	C	0.344800	0.087800	0.943400	0.566242
C37	C	0.426000	0.335900	0.861300	-0.506750
C38	C	0.417300	0.457400	0.867600	-0.061306
C39	C	0.413900	0.506400	0.836900	0.042255
C40	C	0.247500	0.522200	0.817700	-0.141569
C41	C	0.249500	0.561200	0.785400	-0.034036
C42	C	0.415400	0.585000	0.771800	-0.096103
C43	C	0.580600	0.573500	0.794700	-0.034036
C44	C	0.580000	0.534400	0.826800	-0.141569
C45	C	0.418100	0.623000	0.734100	0.570595
C46	C	0.778100	0.254900	0.179400	0.706574
C47	C	0.759500	0.266500	0.129000	-0.153689
C48	C	0.590600	0.251200	0.103900	-0.025508
C49	C	0.568400	0.261300	0.057200	-0.145135
C50	C	0.715500	0.285700	0.035700	0.042255
C51	C	0.688900	0.293900	0.984100	-0.061306
C52	C	0.842300	0.182600	0.940490	-0.506750
C53	C	0.881800	0.301900	0.061300	-0.145135
C54	C	0.906000	0.292400	0.108200	-0.025508
C55	C	0.191400	0.097900	0.679200	-0.454117
C56	C	0.481700	0.057100	0.627210	0.024641
C57	C	0.390000	0.065300	0.580540	0.043975
C58	C	0.393100	0.126400	0.571600	-0.146397
C59	C	0.313800	0.134300	0.527500	-0.034036
C60	C	0.233100	0.080600	0.492190	-0.094738
C61	C	0.232800	0.018800	0.500900	-0.034036
C62	C	0.307000	0.011200	0.544900	-0.146397
C63	C	0.155200	0.087800	0.443400	0.566242
C64	C	0.074000	0.335900	0.361300	-0.506750
C65	C	0.082700	0.457400	0.367600	-0.061306
C66	C	0.086100	0.506400	0.336900	0.042255
C67	C	0.252500	0.522200	0.317700	-0.141569
C68	C	0.250500	0.561200	0.285400	-0.034036
C69	C	0.084600	0.585000	0.271800	-0.096103
C70	C	0.919400	0.573500	0.294700	-0.034036
C71	C	0.920000	0.534400	0.326800	-0.141569
C72	C	0.081900	0.623000	0.234100	0.570595
C73	C	0.721900	0.254900	0.679400	0.706574
C74	C	0.740500	0.266500	0.629000	-0.153689
C75	C	0.909400	0.251200	0.603900	-0.025508
C76	C	0.931600	0.261300	0.557200	-0.145135
C77	C	0.784500	0.285700	0.535700	0.042255
C78	C	0.811100	0.293900	0.484100	-0.061306
C79	C	0.657700	0.182600	0.440490	-0.506750
C80	C	0.618200	0.301900	0.561300	-0.145135
C81	C	0.594000	0.292400	0.608200	-0.025508
C82	C	0.691400	0.902100	0.820800	-0.454117
C83	C	0.981700	0.942900	0.872790	0.024641
C84	C	0.890000	0.934700	0.919460	0.043975
C85	C	0.893100	0.873600	0.928400	-0.146397
C86	C	0.813800	0.865700	0.972500	-0.034036
C87	C	0.733100	0.919400	0.007810	-0.094738
C88	C	0.732800	0.981200	0.999100	-0.034036
C89	C	0.807000	0.988800	0.955100	-0.146397
C90	C	0.655200	0.912200	0.056600	0.566242
C91	C	0.574000	0.664100	0.138700	-0.506750
C92	C	0.582700	0.542600	0.132400	-0.061306
C93	C	0.586100	0.493600	0.163100	0.042255
C94	C	0.752500	0.477800	0.182300	-0.141569
C95	C	0.750500	0.438800	0.214600	-0.034036
C96	C	0.584600	0.415000	0.228200	-0.096103
C97	C	0.419400	0.426500	0.205300	-0.034036
C98	C	0.420000	0.465600	0.173200	-0.141569
C99	C	0.581900	0.377000	0.265900	0.570595
C100	C	0.221900	0.745100	0.820600	0.706574
C101	C	0.240500	0.733500	0.871000	-0.153689
C102	C	0.409400	0.748800	0.896100	-0.025508
C103	C	0.431600	0.738700	0.942800	-0.145135
C104	C	0.284500	0.714300	0.964300	0.042255
C105	C	0.311100	0.706100	0.015900	-0.061306
C106	C	0.157700	0.817400	0.059510	-0.506750
C107	C	0.118200	0.698100	0.938700	-0.145135
C108	C	0.094000	0.707600	0.891800	-0.025508
N1	N	0.657100	0.954200	0.335310	-0.221799
N2	N	0.917300	0.613800	0.667230	-0.030424
N3	N	0.177000	0.772400	0.555550	-0.030424
N4	N	0.157100	0.045800	0.164690	-0.221799
N5	N	0.417300	0.386200	0.832770	-0.030424
N6	N	0.677000	0.227600	0.944450	-0.030424
N7	N	0.342900	0.045800	0.664690	-0.221799
N8	N	0.082700	0.386200	0.332770	-0.030424
N9	N	0.823000	0.227600	0.444450	-0.030424
N10	N	0.842900	0.954200	0.835310	-0.221799
N11	N	0.582700	0.613800	0.167230	-0.030424
N12	N	0.323000	0.772400	0.055550	-0.030424
O1	O	0.874900	0.963200	0.592350	-0.702888
O2	O	0.869700	0.853200	0.559410	-0.702888
O3	O	0.072100	0.979820	0.298310	-0.966708
O4	O	0.087300	0.857110	0.256120	-0.964746
O5	O	0.829300	0.928600	0.233160	-0.966708
O6	O	0.927200	0.793010	0.644530	-0.966683
O7	O	0.731700	0.759000	0.708660	-0.964763
O8	O	0.081200	0.758910	0.715160	-0.964763
O9	O	0.766100	0.363100	0.783550	-0.701467
O10	O	0.072900	0.355200	0.777020	-0.701467
O11	O	0.453400	0.745400	0.305180	-0.498272
O12	O	0.141100	0.752700	0.296970	-0.744316
O13	O	0.560600	0.901500	0.630050	-0.966683
O14	O	0.207600	0.909310	0.641700	-0.966683
O15	O	0.380900	0.806150	0.649130	-0.964763
O16	O	0.374900	0.036800	0.907650	-0.702888
O17	O	0.369700	0.146800	0.940590	-0.702888
O18	O	0.572100	0.020180	0.201690	-0.966708
O19	O	0.587300	0.142890	0.243880	-0.964746
O20	O	0.329300	0.071400	0.266840	-0.966708
O21	O	0.427200	0.206990	0.855470	-0.966683
O22	O	0.231700	0.241000	0.791340	-0.964763
O23	O	0.581200	0.241090	0.784840	-0.964763
O24	O	0.266100	0.636900	0.716450	-0.701467
O25	O	0.572900	0.644800	0.722980	-0.701467
O26	O	0.953400	0.254600	0.194820	-0.498272
O27	O	0.641100	0.247300	0.203030	-0.744316
O28	O	0.060600	0.098500	0.869950	-0.966683
O29	O	0.707600	0.090690	0.858300	-0.966683
O30	O	0.880900	0.193850	0.850870	-0.964763
O31	O	0.125100	0.036800	0.407650	-0.702888
O32	O	0.130300	0.146800	0.440590	-0.702888
O33	O	0.927900	0.020180	0.701690	-0.966708
O34	O	0.912700	0.142890	0.743880	-0.964746
O35	O	0.170700	0.071400	0.766840	-0.966708
O36	O	0.072800	0.206990	0.355470	-0.966683
O37	O	0.268300	0.241000	0.291340	-0.964763
O38	O	0.918800	0.241090	0.284840	-0.964763
O39	O	0.233900	0.636900	0.216450	-0.701467
O40	O	0.927100	0.644800	0.222980	-0.701467
O41	O	0.546600	0.254600	0.694820	-0.498272
O42	O	0.858900	0.247300	0.703030	-0.744316
O43	O	0.439400	0.098500	0.369950	-0.966683
O44	O	0.792400	0.090690	0.358300	-0.966683
O45	O	0.619100	0.193850	0.350870	-0.964763
O46	O	0.625100	0.963200	0.092350	-0.702888
O47	O	0.630300	0.853200	0.059410	-0.702888
O48	O	0.427900	0.979820	0.798310	-0.966708
O49	O	0.412700	0.857110	0.756120	-0.964746
O50	O	0.670700	0.928600	0.733160	-0.966708
O51	O	0.572800	0.793010	0.144530	-0.966683
O52	O	0.768300	0.759000	0.208660	-0.964763
O53	O	0.418800	0.758910	0.215160	-0.964763
O54	O	0.733900	0.363100	0.283550	-0.701467
O55	O	0.427100	0.355200	0.277020	-0.701467
O56	O	0.046600	0.745400	0.805180	-0.498272
O57	O	0.358900	0.752700	0.796970	-0.744316
O58	O	0.939400	0.901500	0.130050	-0.966683
O59	O	0.292400	0.909310	0.141700	-0.966683
O60	O	0.119100	0.806150	0.149130	-0.964763
