data_LAGMUD_clean_PM
_symmetry_space_group_name_H-M	'P1'
_cell_length_a	9.819600
_cell_length_b	10.342100
_cell_length_c	11.013300
_cell_angle_alpha	77.278001
_cell_angle_beta	76.397999
_cell_angle_gamma	65.792998
_symmetry_Int_Tables_number 1

loop_
_symmetry_equiv_pos_as_xyz
'x,y,z'

loop_
_atom_site_label
_atom_site_type_symbol
_atom_site_fract_x
_atom_site_fract_y
_atom_site_fract_z
_atom_site_charge
Y1	Y	0.943870	0.227670	0.824060	2.076760
Y2	Y	0.056130	0.772330	0.175940	2.076760
H1	H	0.649700	0.859700	0.151600	0.104314
H2	H	0.599300	0.117800	0.819300	0.104314
H3	H	0.434500	0.416300	0.709500	0.105081
H4	H	0.741700	0.500100	0.423500	0.105081
H5	H	0.309100	0.921200	0.503900	0.104314
H6	H	0.453100	0.187000	0.607400	0.104314
H7	H	0.350300	0.140300	0.848400	0.104314
H8	H	0.400700	0.882200	0.180700	0.104314
H9	H	0.565500	0.583700	0.290500	0.105081
H10	H	0.258300	0.499900	0.576500	0.105081
H11	H	0.690900	0.078800	0.496100	0.104314
H12	H	0.546900	0.813000	0.392600	0.104314
C1	C	0.649500	0.986600	0.982200	-0.145825
C2	C	0.589500	0.915800	0.091100	-0.051540
C3	C	0.559200	0.070700	0.891600	-0.051540
C4	C	0.808900	0.977000	0.966700	0.771714
C5	C	0.607600	0.448500	0.580600	-0.094843
C6	C	0.460600	0.449800	0.625300	-0.065532
C7	C	0.645000	0.499900	0.454200	-0.065532
C8	C	0.722800	0.389400	0.666600	0.626378
C9	C	0.355800	0.066000	0.567200	-0.145825
C10	C	0.385500	0.952900	0.502300	-0.051540
C11	C	0.471900	0.112100	0.564200	-0.051540
C12	C	0.203900	0.132600	0.646000	0.771714
C13	C	0.350500	0.013400	0.017800	-0.145825
C14	C	0.410500	0.084200	0.908900	-0.051540
C15	C	0.440800	0.929300	0.108400	-0.051540
C16	C	0.191100	0.023000	0.033300	0.771714
C17	C	0.392400	0.551500	0.419400	-0.094843
C18	C	0.539400	0.550200	0.374700	-0.065532
C19	C	0.355000	0.500100	0.545800	-0.065532
C20	C	0.277200	0.610600	0.333400	0.626378
C21	C	0.644200	0.934000	0.432800	-0.145825
C22	C	0.614500	0.047100	0.497700	-0.051540
C23	C	0.528100	0.887900	0.435800	-0.051540
C24	C	0.796100	0.867400	0.354000	0.771714
O1	O	0.857900	0.046400	0.870400	-0.711918
O2	O	0.884300	0.899700	0.052000	-0.711918
O3	O	0.858500	0.375100	0.624900	-0.651297
O4	O	0.684100	0.349800	0.782100	-0.651297
O5	O	0.169900	0.249700	0.684000	-0.711918
O6	O	0.115300	0.064700	0.677500	-0.711918
O7	O	0.142100	0.953600	0.129600	-0.711918
O8	O	0.115700	0.100300	0.948000	-0.711918
O9	O	0.141500	0.624900	0.375100	-0.651297
O10	O	0.315900	0.650200	0.217900	-0.651297
O11	O	0.830100	0.750300	0.316000	-0.711918
O12	O	0.884700	0.935300	0.322500	-0.711918
