data_LIHRIE_clean_PM
_symmetry_space_group_name_H-M	'P1'
_cell_length_a	6.811900
_cell_length_b	7.318300
_cell_length_c	13.784600
_cell_angle_alpha	90.000000
_cell_angle_beta	90.000000
_cell_angle_gamma	90.000000
_symmetry_Int_Tables_number 1

loop_
_symmetry_equiv_pos_as_xyz
'x,y,z'

loop_
_atom_site_label
_atom_site_type_symbol
_atom_site_fract_x
_atom_site_fract_y
_atom_site_fract_z
_atom_site_charge
Zn1	Zn	0.750000	0.182630	0.586240	0.155103
Zn2	Zn	0.250000	0.317370	0.086240	0.155103
Zn3	Zn	0.250000	0.817370	0.413760	0.155103
Zn4	Zn	0.750000	0.682630	0.913760	0.155103
Zn5	Zn	0.000000	0.500000	0.500000	0.515773
Zn6	Zn	0.000000	0.000000	0.000000	0.515773
Zn7	Zn	0.500000	0.500000	0.500000	0.515773
Zn8	Zn	0.500000	0.000000	0.000000	0.515773
H1	H	0.038600	0.137900	0.766800	0.080426
H2	H	0.961400	0.362100	0.266800	0.080426
H3	H	0.538600	0.862100	0.233200	0.080426
H4	H	0.461400	0.637900	0.733200	0.080426
H5	H	0.961400	0.862100	0.233200	0.080426
H6	H	0.038600	0.637900	0.733200	0.080426
H7	H	0.461400	0.137900	0.766800	0.080426
H8	H	0.538600	0.362100	0.266800	0.080426
H9	H	0.750000	0.291000	0.431000	0.388283
H10	H	0.250000	0.209000	0.931000	0.388283
H11	H	0.250000	0.709000	0.569000	0.388283
H12	H	0.750000	0.791000	0.069000	0.388283
C1	C	0.905800	0.127200	0.787020	0.212588
C2	C	0.094200	0.372800	0.287020	0.212588
C3	C	0.405800	0.872800	0.212980	0.212588
C4	C	0.594200	0.627200	0.712980	0.212588
C5	C	0.094200	0.872800	0.212980	0.212588
C6	C	0.905800	0.627200	0.712980	0.212588
C7	C	0.594200	0.127200	0.787020	0.212588
C8	C	0.405800	0.372800	0.287020	0.212588
N1	N	0.851300	0.080500	0.875400	-0.275652
N2	N	0.148700	0.419500	0.375400	-0.275652
N3	N	0.351300	0.919500	0.124600	-0.275652
N4	N	0.648700	0.580500	0.624600	-0.275652
N5	N	0.148700	0.919500	0.124600	-0.275652
N6	N	0.851300	0.580500	0.624600	-0.275652
N7	N	0.648700	0.080500	0.875400	-0.275652
N8	N	0.351300	0.419500	0.375400	-0.275652
N9	N	0.750000	0.158000	0.728660	-0.299956
N10	N	0.250000	0.342000	0.228660	-0.299956
N11	N	0.250000	0.842000	0.271340	-0.299956
N12	N	0.750000	0.658000	0.771340	-0.299956
O1	O	0.750000	0.351100	0.473540	-0.793927
O2	O	0.250000	0.148900	0.973540	-0.793927
O3	O	0.250000	0.648900	0.526460	-0.793927
O4	O	0.750000	0.851100	0.026460	-0.793927
