data_LOQLEJ_manual_PM
_symmetry_space_group_name_H-M	'P1'
_cell_length_a	7.233000
_cell_length_b	21.758200
_cell_length_c	21.758200
_cell_angle_alpha	119.952201
_cell_angle_beta	90.000000
_cell_angle_gamma	90.000000
_symmetry_Int_Tables_number 1

loop_
_symmetry_equiv_pos_as_xyz
'x,y,z'

loop_
_atom_site_label
_atom_site_type_symbol
_atom_site_fract_x
_atom_site_fract_y
_atom_site_fract_z
_atom_site_charge
In1	In	0.000000	0.000000	0.500000	1.718140
In2	In	0.500000	0.000000	0.500000	1.718140
In3	In	0.500000	0.500000	0.000000	1.718140
In4	In	0.000000	0.500000	0.000000	1.718140
In5	In	0.000000	0.000000	0.000000	1.718140
In6	In	0.500000	0.000000	0.000000	1.718140
H1	H	0.449210	0.795120	0.320500	0.103149
H2	H	0.050240	0.968680	0.677440	0.103149
H3	H	0.050820	0.969040	0.792020	0.103149
H4	H	0.949210	0.204880	0.679500	0.103149
H5	H	0.550240	0.031320	0.322560	0.103149
H6	H	0.550820	0.030960	0.207980	0.103149
H7	H	0.050790	0.679500	0.204880	0.103149
H8	H	0.449760	0.322560	0.031320	0.103149
H9	H	0.449180	0.207980	0.030960	0.103149
H10	H	0.550790	0.320500	0.795120	0.103149
H11	H	0.949760	0.677440	0.968680	0.103149
H12	H	0.949180	0.792020	0.969040	0.103149
H13	H	0.550790	0.204880	0.679500	0.103149
H14	H	0.949760	0.031320	0.322560	0.103149
H15	H	0.949180	0.030960	0.207980	0.103149
H16	H	0.050790	0.795120	0.320500	0.103149
H17	H	0.449760	0.968680	0.677440	0.103149
H18	H	0.449180	0.969040	0.792020	0.103149
H19	H	0.949210	0.320500	0.795120	0.103149
H20	H	0.550240	0.677440	0.968680	0.103149
H21	H	0.550820	0.792020	0.969040	0.103149
H22	H	0.449210	0.679500	0.204880	0.103149
H23	H	0.050240	0.322560	0.031320	0.103149
H24	H	0.050820	0.207980	0.030960	0.103149
H25	H	0.750170	0.456500	0.905190	0.443261
H26	H	0.249970	0.905200	0.456500	0.443261
H27	H	0.750030	0.094810	0.543490	0.443261
H28	H	0.249990	0.453040	0.047990	0.443261
H29	H	0.250000	0.076410	0.997520	0.443261
H30	H	0.749950	0.997890	0.076440	0.443261
C1	C	0.585600	0.767930	0.295330	-0.065883
C2	C	0.913900	0.969590	0.704170	-0.065883
C3	C	0.914200	0.969100	0.765920	-0.065883
C4	C	0.085600	0.232070	0.704670	-0.065883
C5	C	0.413900	0.030410	0.295830	-0.065883
C6	C	0.414200	0.030900	0.234080	-0.065883
C7	C	0.914400	0.704670	0.232070	-0.065883
C8	C	0.586100	0.295830	0.030410	-0.065883
C9	C	0.585800	0.234080	0.030900	-0.065883
C10	C	0.414400	0.295330	0.767930	-0.065883
C11	C	0.086100	0.704170	0.969590	-0.065883
C12	C	0.085800	0.765920	0.969100	-0.065883
C13	C	0.414400	0.232070	0.704670	-0.065883
C14	C	0.086100	0.030410	0.295830	-0.065883
C15	C	0.085800	0.030900	0.234080	-0.065883
C16	C	0.914400	0.767930	0.295330	-0.065883
C17	C	0.586100	0.969590	0.704170	-0.065883
C18	C	0.585800	0.969100	0.765920	-0.065883
C19	C	0.085600	0.295330	0.767930	-0.065883
C20	C	0.413900	0.704170	0.969590	-0.065883
C21	C	0.414200	0.765920	0.969100	-0.065883
C22	C	0.585600	0.704670	0.232070	-0.065883
C23	C	0.913900	0.295830	0.030410	-0.065883
C24	C	0.914200	0.234080	0.030900	-0.065883
C25	C	0.750000	0.870700	0.394040	0.724037
C26	C	0.750000	0.797860	0.327700	-0.128895
C27	C	0.750000	0.977480	0.606140	0.724037
C28	C	0.750000	0.971190	0.672450	-0.128895
C29	C	0.750000	0.968670	0.797510	-0.128895
C30	C	0.750000	0.970750	0.868750	0.724037
C31	C	0.250000	0.129300	0.605960	0.724037
C32	C	0.250000	0.202140	0.672300	-0.128895
C33	C	0.250000	0.022520	0.393860	0.724037
C34	C	0.250000	0.028810	0.327550	-0.128895
C35	C	0.250000	0.031330	0.202490	-0.128895
C36	C	0.250000	0.029250	0.131250	0.724037
C37	C	0.750000	0.605960	0.129300	0.724037
C38	C	0.750000	0.672300	0.202140	-0.128895
C39	C	0.750000	0.393860	0.022520	0.724037
C40	C	0.750000	0.327550	0.028810	-0.128895
C41	C	0.750000	0.202490	0.031330	-0.128895
C42	C	0.750000	0.131250	0.029250	0.724037
C43	C	0.250000	0.394040	0.870700	0.724037
C44	C	0.250000	0.327700	0.797860	-0.128895
C45	C	0.250000	0.606140	0.977480	0.724037
C46	C	0.250000	0.672450	0.971190	-0.128895
C47	C	0.250000	0.797510	0.968670	-0.128895
C48	C	0.250000	0.868750	0.970750	0.724037
O1	O	0.904350	0.897140	0.419280	-0.639223
O2	O	0.901940	0.977330	0.579950	-0.639223
O3	O	0.903530	0.971820	0.895840	-0.639223
O4	O	0.404350	0.102860	0.580720	-0.639223
O5	O	0.401940	0.022670	0.420050	-0.639223
O6	O	0.403530	0.028180	0.104160	-0.639223
O7	O	0.595650	0.580720	0.102860	-0.639223
O8	O	0.598060	0.420050	0.022670	-0.639223
O9	O	0.596470	0.104160	0.028180	-0.639223
O10	O	0.095650	0.419280	0.897140	-0.639223
O11	O	0.098060	0.579950	0.977330	-0.639223
O12	O	0.096470	0.895840	0.971820	-0.639223
O13	O	0.095650	0.102860	0.580720	-0.639223
O14	O	0.098060	0.022670	0.420050	-0.639223
O15	O	0.096470	0.028180	0.104160	-0.639223
O16	O	0.595650	0.897140	0.419280	-0.639223
O17	O	0.598060	0.977330	0.579950	-0.639223
O18	O	0.596470	0.971820	0.895840	-0.639223
O19	O	0.404350	0.419280	0.897140	-0.639223
O20	O	0.401940	0.579950	0.977330	-0.639223
O21	O	0.403530	0.895840	0.971820	-0.639223
O22	O	0.904350	0.580720	0.102860	-0.639223
O23	O	0.901940	0.420050	0.022670	-0.639223
O24	O	0.903530	0.104160	0.028180	-0.639223
O25	O	0.750000	0.048610	0.498830	-0.943860
O26	O	0.250000	0.951390	0.501170	-0.943860
O27	O	0.750000	0.501170	0.951390	-0.943860
O28	O	0.250000	0.498830	0.048610	-0.943860
O29	O	0.750000	0.975840	0.024160	-0.943860
O30	O	0.250000	0.024160	0.975840	-0.943860
