data_LUPTAS_clean_PM
_symmetry_space_group_name_H-M	'P1'
_cell_length_a	10.084800
_cell_length_b	16.211000
_cell_length_c	19.368000
_cell_angle_alpha	114.701001
_cell_angle_beta	90.000000
_cell_angle_gamma	90.000000
_symmetry_Int_Tables_number 1

loop_
_symmetry_equiv_pos_as_xyz
'x,y,z'

loop_
_atom_site_label
_atom_site_type_symbol
_atom_site_fract_x
_atom_site_fract_y
_atom_site_fract_z
_atom_site_charge
Zn1	Zn	0.028080	0.681540	0.546840	0.926239
Zn2	Zn	0.020000	0.336090	0.990100	0.955058
Zn3	Zn	0.528080	0.818460	0.453160	0.926239
Zn4	Zn	0.520000	0.163910	0.009900	0.955058
Zn5	Zn	0.971920	0.318460	0.453160	0.926239
Zn6	Zn	0.980000	0.663910	0.009900	0.955058
Zn7	Zn	0.471920	0.181540	0.546840	0.926239
Zn8	Zn	0.480000	0.836090	0.990100	0.955058
H1	H	0.295800	0.540100	0.966800	0.103258
H2	H	0.974900	0.588700	0.645100	0.086649
H3	H	0.726800	0.733400	0.583400	0.087385
H4	H	0.619500	0.331300	0.773700	0.102599
H5	H	0.977200	0.412100	0.871000	0.087200
H6	H	0.588400	0.596100	0.699200	0.102599
H7	H	0.552800	0.695400	0.641800	0.133711
H8	H	0.761200	0.248700	0.929100	0.088474
H9	H	0.592300	0.249800	0.849300	0.133711
H10	H	0.592700	0.564700	0.779700	0.308350
H11	H	0.597800	0.502700	0.820900	0.308350
H12	H	0.168200	0.972300	0.570000	0.103258
H13	H	0.795800	0.959900	0.033200	0.103258
H14	H	0.474900	0.911300	0.354900	0.086649
H15	H	0.226800	0.766600	0.416600	0.087385
H16	H	0.119500	0.168700	0.226300	0.102599
H17	H	0.477200	0.087900	0.129000	0.087200
H18	H	0.088400	0.903900	0.300800	0.102599
H19	H	0.052800	0.804600	0.358200	0.133711
H20	H	0.261200	0.251300	0.070900	0.088474
H21	H	0.092300	0.250200	0.150700	0.133711
H22	H	0.092700	0.935300	0.220300	0.308350
H23	H	0.097800	0.997300	0.179100	0.308350
H24	H	0.668200	0.527700	0.430000	0.103258
H25	H	0.704200	0.459900	0.033200	0.103258
H26	H	0.025100	0.411300	0.354900	0.086649
H27	H	0.273200	0.266600	0.416600	0.087385
H28	H	0.380500	0.668700	0.226300	0.102599
H29	H	0.022800	0.587900	0.129000	0.087200
H30	H	0.411600	0.403900	0.300800	0.102599
H31	H	0.447200	0.304600	0.358200	0.133711
H32	H	0.238800	0.751300	0.070900	0.088474
H33	H	0.407700	0.750200	0.150700	0.133711
H34	H	0.407300	0.435300	0.220300	0.308350
H35	H	0.402200	0.497300	0.179100	0.308350
H36	H	0.831800	0.027700	0.430000	0.103258
H37	H	0.204200	0.040100	0.966800	0.103258
H38	H	0.525100	0.088700	0.645100	0.086649
H39	H	0.773200	0.233400	0.583400	0.087385
H40	H	0.880500	0.831300	0.773700	0.102599
H41	H	0.522800	0.912100	0.871000	0.087200
H42	H	0.911600	0.096100	0.699200	0.102599
H43	H	0.947200	0.195400	0.641800	0.133711
H44	H	0.738800	0.748700	0.929100	0.088474
H45	H	0.907700	0.749800	0.849300	0.133711
H46	H	0.907300	0.064700	0.779700	0.308350
H47	H	0.902200	0.002700	0.820900	0.308350
H48	H	0.331800	0.472300	0.570000	0.103258
C1	C	0.379000	0.523600	0.980300	-0.060528
C2	C	0.385500	0.451300	0.000500	-0.096914
C3	C	0.973400	0.867200	0.564900	0.649770
C4	C	0.887200	0.609100	0.643400	0.188270
C5	C	0.259600	0.406300	0.007400	0.660575
C6	C	0.786100	0.580100	0.676800	-0.102355
C7	C	0.742700	0.694700	0.608200	0.186651
C8	C	0.802900	0.379200	0.814500	-0.101883
C9	C	0.687200	0.331300	0.807900	0.034109
C10	C	0.832200	0.425600	0.766400	0.254487
C11	C	0.898000	0.378300	0.865900	0.184004
C12	C	0.660000	0.613300	0.676200	0.034109
C13	C	0.638800	0.671500	0.641900	-0.166356
C14	C	0.822300	0.513400	0.705700	0.254487
C15	C	0.771600	0.283700	0.900500	0.187249
C16	C	0.671500	0.282900	0.852400	-0.166277
C17	C	0.980300	0.936400	0.531100	-0.090670
C18	C	0.877900	0.954700	0.490200	-0.126364
C19	C	0.744000	0.908900	0.480400	0.699896
C20	C	0.507300	0.426800	0.020700	-0.096914
C21	C	0.525800	0.345600	0.039200	0.660575
C22	C	0.099900	0.983100	0.541100	-0.055711
C23	C	0.879000	0.976400	0.019700	-0.060528
C24	C	0.885500	0.048700	0.999500	-0.096914
C25	C	0.473400	0.632800	0.435100	0.649770
C26	C	0.387200	0.890900	0.356600	0.188270
C27	C	0.759600	0.093700	0.992600	0.660575
C28	C	0.286100	0.919900	0.323200	-0.102355
C29	C	0.242700	0.805300	0.391800	0.186651
C30	C	0.302900	0.120800	0.185500	-0.101883
C31	C	0.187200	0.168700	0.192100	0.034109
C32	C	0.332200	0.074400	0.233600	0.254487
C33	C	0.398000	0.121700	0.134100	0.184004
C34	C	0.160000	0.886700	0.323800	0.034109
C35	C	0.138800	0.828500	0.358100	-0.166356
C36	C	0.322300	0.986600	0.294300	0.254487
C37	C	0.271600	0.216300	0.099500	0.187249
C38	C	0.171500	0.217100	0.147600	-0.166277
C39	C	0.480300	0.563600	0.468900	-0.090670
C40	C	0.377900	0.545300	0.509800	-0.126364
C41	C	0.244000	0.591100	0.519600	0.699896
C42	C	0.007300	0.073200	0.979300	-0.096914
C43	C	0.025800	0.154400	0.960800	0.660575
C44	C	0.599900	0.516900	0.458900	-0.055711
C45	C	0.621000	0.476400	0.019700	-0.060528
C46	C	0.614500	0.548700	0.999500	-0.096914
C47	C	0.026600	0.132800	0.435100	0.649770
C48	C	0.112800	0.390900	0.356600	0.188270
C49	C	0.740400	0.593700	0.992600	0.660575
C50	C	0.213900	0.419900	0.323200	-0.102355
C51	C	0.257300	0.305300	0.391800	0.186651
C52	C	0.197100	0.620800	0.185500	-0.101883
C53	C	0.312800	0.668700	0.192100	0.034109
C54	C	0.167800	0.574400	0.233600	0.254487
C55	C	0.102000	0.621700	0.134100	0.184004
C56	C	0.340000	0.386700	0.323800	0.034109
C57	C	0.361200	0.328500	0.358100	-0.166356
C58	C	0.177700	0.486600	0.294300	0.254487
C59	C	0.228400	0.716300	0.099500	0.187249
C60	C	0.328500	0.717100	0.147600	-0.166277
C61	C	0.019700	0.063600	0.468900	-0.090670
C62	C	0.122100	0.045300	0.509800	-0.126364
C63	C	0.256000	0.091100	0.519600	0.699896
C64	C	0.492700	0.573200	0.979300	-0.096914
C65	C	0.474200	0.654400	0.960800	0.660575
C66	C	0.900100	0.016900	0.458900	-0.055711
C67	C	0.121000	0.023600	0.980300	-0.060528
C68	C	0.114500	0.951300	0.000500	-0.096914
C69	C	0.526600	0.367200	0.564900	0.649770
C70	C	0.612800	0.109100	0.643400	0.188270
C71	C	0.240400	0.906300	0.007400	0.660575
C72	C	0.713900	0.080100	0.676800	-0.102355
C73	C	0.757300	0.194700	0.608200	0.186651
C74	C	0.697100	0.879200	0.814500	-0.101883
C75	C	0.812800	0.831300	0.807900	0.034109
C76	C	0.667800	0.925600	0.766400	0.254487
C77	C	0.602000	0.878300	0.865900	0.184004
C78	C	0.840000	0.113300	0.676200	0.034109
C79	C	0.861200	0.171500	0.641900	-0.166356
C80	C	0.677700	0.013400	0.705700	0.254487
C81	C	0.728400	0.783700	0.900500	0.187249
C82	C	0.828500	0.782900	0.852400	-0.166277
C83	C	0.519700	0.436400	0.531100	-0.090670
C84	C	0.622100	0.454700	0.490200	-0.126364
C85	C	0.756000	0.408900	0.480400	0.699896
C86	C	0.992700	0.926800	0.020700	-0.096914
C87	C	0.974200	0.845600	0.039200	0.660575
C88	C	0.400100	0.483100	0.541100	-0.055711
N1	N	0.866700	0.664300	0.609000	-0.337342
N2	N	0.883200	0.331600	0.909100	-0.369668
N3	N	0.939900	0.411700	0.724300	-0.282806
N4	N	0.934000	0.466300	0.687100	-0.282806
N5	N	0.755300	0.488600	0.755300	0.205839
N6	N	0.633600	0.522800	0.789500	-0.585663
N7	N	0.366700	0.835700	0.391000	-0.337342
N8	N	0.383200	0.168400	0.090900	-0.369668
N9	N	0.439900	0.088300	0.275700	-0.282806
N10	N	0.434000	0.033700	0.312900	-0.282806
N11	N	0.255300	0.011400	0.244700	0.205839
N12	N	0.133600	0.977200	0.210500	-0.585663
N13	N	0.133300	0.335700	0.391000	-0.337342
N14	N	0.116800	0.668400	0.090900	-0.369668
N15	N	0.060100	0.588300	0.275700	-0.282806
N16	N	0.066000	0.533700	0.312900	-0.282806
N17	N	0.244700	0.511400	0.244700	0.205839
N18	N	0.366400	0.477200	0.210500	-0.585663
N19	N	0.633300	0.164300	0.609000	-0.337342
N20	N	0.616800	0.831600	0.909100	-0.369668
N21	N	0.560100	0.911700	0.724300	-0.282806
N22	N	0.566000	0.966300	0.687100	-0.282806
N23	N	0.744700	0.988600	0.755300	0.205839
N24	N	0.866400	0.022800	0.789500	-0.585663
O1	O	0.989900	0.785300	0.518300	-0.606890
O2	O	0.242400	0.385500	0.061700	-0.580009
O3	O	0.967200	0.896000	0.634800	-0.579235
O4	O	0.168700	0.392300	0.958800	-0.631635
O5	O	0.722000	0.851500	0.505900	-0.597596
O6	O	0.655300	0.930300	0.444100	-0.597596
O7	O	0.490100	0.269800	0.988000	-0.631635
O8	O	0.576200	0.353900	0.098600	-0.580009
O9	O	0.489900	0.714700	0.481700	-0.606890
O10	O	0.742400	0.114500	0.938300	-0.580009
O11	O	0.467200	0.604000	0.365200	-0.579235
O12	O	0.668700	0.107700	0.041200	-0.631635
O13	O	0.222000	0.648500	0.494100	-0.597596
O14	O	0.155300	0.569700	0.555900	-0.597596
O15	O	0.990100	0.230200	0.012000	-0.631635
O16	O	0.076200	0.146100	0.901400	-0.580009
O17	O	0.010100	0.214700	0.481700	-0.606890
O18	O	0.757600	0.614500	0.938300	-0.580009
O19	O	0.032800	0.104000	0.365200	-0.579235
O20	O	0.831300	0.607700	0.041200	-0.631635
O21	O	0.278000	0.148500	0.494100	-0.597596
O22	O	0.344700	0.069700	0.555900	-0.597596
O23	O	0.509900	0.730200	0.012000	-0.631635
O24	O	0.423800	0.646100	0.901400	-0.580009
O25	O	0.510100	0.285300	0.518300	-0.606890
O26	O	0.257600	0.885500	0.061700	-0.580009
O27	O	0.532800	0.396000	0.634800	-0.579235
O28	O	0.331300	0.892300	0.958800	-0.631635
O29	O	0.778000	0.351500	0.505900	-0.597596
O30	O	0.844700	0.430300	0.444100	-0.597596
O31	O	0.009900	0.769800	0.988000	-0.631635
O32	O	0.923800	0.853900	0.098600	-0.580009
