data_LUSHOX01_clean_PM
_symmetry_space_group_name_H-M	'P1'
_cell_length_a	10.162000
_cell_length_b	13.414000
_cell_length_c	17.653000
_cell_angle_alpha	90.210001
_cell_angle_beta	90.000000
_cell_angle_gamma	90.000000
_symmetry_Int_Tables_number 1

loop_
_symmetry_equiv_pos_as_xyz
'x,y,z'

loop_
_atom_site_label
_atom_site_type_symbol
_atom_site_fract_x
_atom_site_fract_y
_atom_site_fract_z
_atom_site_charge
Mn1	Mn	0.081580	0.388870	0.467980	1.179878
Mn2	Mn	0.924450	0.153500	0.484570	1.201850
Mn3	Mn	0.581580	0.611130	0.032020	1.179878
Mn4	Mn	0.424450	0.846500	0.015430	1.201850
Mn5	Mn	0.918420	0.611130	0.532020	1.179878
Mn6	Mn	0.075550	0.846500	0.515430	1.201850
Mn7	Mn	0.418420	0.388870	0.967980	1.179878
Mn8	Mn	0.575550	0.153500	0.984570	1.201850
H1	H	0.877800	0.210300	0.668200	0.104356
H2	H	0.802400	0.508400	0.670700	0.104356
H3	H	0.779800	0.196000	0.788100	0.104356
H4	H	0.690100	0.491000	0.785800	0.104356
H5	H	0.296100	0.306300	0.258900	0.104356
H6	H	0.181200	0.036100	0.338400	0.104356
H7	H	0.382800	0.230500	0.150700	0.104356
H8	H	0.271800	0.960300	0.230800	0.104356
H9	H	0.377800	0.789700	0.831800	0.104356
H10	H	0.302400	0.491600	0.829300	0.104356
H11	H	0.279800	0.804000	0.711900	0.104356
H12	H	0.190100	0.509000	0.714200	0.104356
H13	H	0.796100	0.693700	0.241100	0.104356
H14	H	0.681200	0.963900	0.161600	0.104356
H15	H	0.882800	0.769500	0.349300	0.104356
H16	H	0.771800	0.039700	0.269200	0.104356
H17	H	0.122200	0.789700	0.331800	0.104356
H18	H	0.197600	0.491600	0.329300	0.104356
H19	H	0.220200	0.804000	0.211900	0.104356
H20	H	0.309900	0.509000	0.214200	0.104356
H21	H	0.703900	0.693700	0.741100	0.104356
H22	H	0.818800	0.963900	0.661600	0.104356
H23	H	0.617200	0.769500	0.849300	0.104356
H24	H	0.728200	0.039700	0.769200	0.104356
H25	H	0.622200	0.210300	0.168200	0.104356
H26	H	0.697600	0.508400	0.170700	0.104356
H27	H	0.720200	0.196000	0.288100	0.104356
H28	H	0.809900	0.491000	0.285800	0.104356
H29	H	0.203900	0.306300	0.758900	0.104356
H30	H	0.318800	0.036100	0.838400	0.104356
H31	H	0.117200	0.230500	0.650700	0.104356
H32	H	0.228200	0.960300	0.730800	0.104356
C1	C	0.911360	0.371590	0.582720	0.725244
C2	C	0.847470	0.360570	0.657960	-0.155423
C3	C	0.841390	0.267200	0.692530	-0.052366
C4	C	0.794350	0.444650	0.693550	-0.052366
C5	C	0.781250	0.258600	0.763070	-0.061713
C6	C	0.729740	0.434630	0.762350	-0.061713
C7	C	0.723370	0.341320	0.796950	-0.135280
C8	C	0.648950	0.329490	0.870200	0.701694
C9	C	0.176170	0.228990	0.378700	0.701694
C10	C	0.231260	0.178900	0.309610	-0.135280
C11	C	0.291040	0.235900	0.253170	-0.061713
C12	C	0.223010	0.075480	0.300840	-0.061713
C13	C	0.343070	0.190920	0.188940	-0.061713
C14	C	0.276520	0.030660	0.236580	-0.061713
C15	C	0.337020	0.087610	0.180490	-0.135280
C16	C	0.395820	0.038440	0.111190	0.697707
C17	C	0.411360	0.628410	0.917280	0.725244
C18	C	0.347470	0.639430	0.842040	-0.155423
C19	C	0.341390	0.732800	0.807470	-0.052366
C20	C	0.294350	0.555350	0.806450	-0.052366
C21	C	0.281250	0.741400	0.736930	-0.061713
C22	C	0.229740	0.565370	0.737650	-0.061713
C23	C	0.223370	0.658680	0.703050	-0.135280
C24	C	0.148950	0.670510	0.629800	0.701694
C25	C	0.676170	0.771010	0.121300	0.701694
C26	C	0.731260	0.821100	0.190390	-0.135280
C27	C	0.791040	0.764100	0.246830	-0.061713
C28	C	0.723010	0.924520	0.199160	-0.061713
C29	C	0.843070	0.809080	0.311060	-0.061713
C30	C	0.776520	0.969340	0.263420	-0.061713
C31	C	0.837020	0.912390	0.319510	-0.135280
C32	C	0.895820	0.961560	0.388810	0.697707
C33	C	0.088640	0.628410	0.417280	0.725244
C34	C	0.152530	0.639430	0.342040	-0.155423
C35	C	0.158610	0.732800	0.307470	-0.052366
C36	C	0.205650	0.555350	0.306450	-0.052366
C37	C	0.218750	0.741400	0.236930	-0.061713
C38	C	0.270260	0.565370	0.237650	-0.061713
C39	C	0.276630	0.658680	0.203050	-0.135280
C40	C	0.351050	0.670510	0.129800	0.701694
C41	C	0.823830	0.771010	0.621300	0.701694
C42	C	0.768740	0.821100	0.690390	-0.135280
C43	C	0.708960	0.764100	0.746830	-0.061713
C44	C	0.776990	0.924520	0.699160	-0.061713
C45	C	0.656930	0.809080	0.811060	-0.061713
C46	C	0.723480	0.969340	0.763420	-0.061713
C47	C	0.662980	0.912390	0.819510	-0.135280
C48	C	0.604180	0.961560	0.888810	0.697707
C49	C	0.588640	0.371590	0.082720	0.725244
C50	C	0.652530	0.360570	0.157960	-0.155423
C51	C	0.658610	0.267200	0.192530	-0.052366
C52	C	0.705650	0.444650	0.193550	-0.052366
C53	C	0.718750	0.258600	0.263070	-0.061713
C54	C	0.770260	0.434630	0.262350	-0.061713
C55	C	0.776630	0.341320	0.296950	-0.135280
C56	C	0.851050	0.329490	0.370200	0.701694
C57	C	0.323830	0.228990	0.878700	0.701694
C58	C	0.268740	0.178900	0.809610	-0.135280
C59	C	0.208960	0.235900	0.753170	-0.061713
C60	C	0.276990	0.075480	0.800840	-0.061713
C61	C	0.156930	0.190920	0.688940	-0.061713
C62	C	0.223480	0.030660	0.736580	-0.061713
C63	C	0.162980	0.087610	0.680490	-0.135280
C64	C	0.104180	0.038440	0.611190	0.697707
O1	O	0.976750	0.300000	0.554360	-0.635592
O2	O	0.902900	0.453440	0.548140	-0.639447
O3	O	0.559870	0.392030	0.881930	-0.625291
O4	O	0.681200	0.258820	0.912710	-0.620255
O5	O	0.209170	0.318930	0.390080	-0.625291
O6	O	0.102040	0.180640	0.421880	-0.620255
O7	O	0.351450	0.954270	0.093300	-0.620255
O8	O	0.485010	0.084570	0.077080	-0.620255
O9	O	0.476750	0.700000	0.945640	-0.635592
O10	O	0.402900	0.546560	0.951860	-0.639447
O11	O	0.059870	0.607970	0.618070	-0.625291
O12	O	0.181200	0.741180	0.587290	-0.620255
O13	O	0.709170	0.681070	0.109920	-0.625291
O14	O	0.602040	0.819360	0.078120	-0.620255
O15	O	0.851450	0.045730	0.406700	-0.620255
O16	O	0.985010	0.915430	0.422920	-0.620255
O17	O	0.023250	0.700000	0.445640	-0.635592
O18	O	0.097100	0.546560	0.451860	-0.639447
O19	O	0.440130	0.607970	0.118070	-0.625291
O20	O	0.318800	0.741180	0.087290	-0.620255
O21	O	0.790830	0.681070	0.609920	-0.625291
O22	O	0.897960	0.819360	0.578120	-0.620255
O23	O	0.648550	0.045730	0.906700	-0.620255
O24	O	0.514990	0.915430	0.922920	-0.620255
O25	O	0.523250	0.300000	0.054360	-0.635592
O26	O	0.597100	0.453440	0.048140	-0.639447
O27	O	0.940130	0.392030	0.381930	-0.625291
O28	O	0.818800	0.258820	0.412710	-0.620255
O29	O	0.290830	0.318930	0.890080	-0.625291
O30	O	0.397960	0.180640	0.921880	-0.620255
O31	O	0.148550	0.954270	0.593300	-0.620255
O32	O	0.014990	0.084570	0.577080	-0.620255
