data_MAPFOY_clean_PM
_symmetry_space_group_name_H-M	'P1'
_cell_length_a	11.095000
_cell_length_b	17.970000
_cell_length_c	19.484000
_cell_angle_alpha	90.000000
_cell_angle_beta	90.000000
_cell_angle_gamma	90.000000
_symmetry_Int_Tables_number 1

loop_
_symmetry_equiv_pos_as_xyz
'x,y,z'

loop_
_atom_site_label
_atom_site_type_symbol
_atom_site_fract_x
_atom_site_fract_y
_atom_site_fract_z
_atom_site_charge
Ti1	Ti	0.099700	0.458500	0.553800	1.997599
Ti2	Ti	0.400300	0.541500	0.053800	1.997599
Ti3	Ti	0.900300	0.958500	0.946200	1.997599
Ti4	Ti	0.599700	0.041500	0.446200	1.997599
Ti5	Ti	0.900300	0.541500	0.446200	1.997599
Ti6	Ti	0.599700	0.458500	0.946200	1.997599
Ti7	Ti	0.099700	0.041500	0.053800	1.997599
Ti8	Ti	0.400300	0.958500	0.553800	1.997599
H1	H	0.232100	0.801600	0.498100	0.129554
H2	H	0.127200	0.676200	0.508500	0.130549
H3	H	0.240800	0.505700	0.392500	0.133217
H4	H	0.391900	0.576500	0.347900	0.097883
H5	H	0.499100	0.697300	0.340500	0.097883
H6	H	0.517500	0.819300	0.371900	0.128611
H7	H	0.699300	0.610000	0.804500	0.128611
H8	H	0.682900	0.635700	0.689000	0.097883
H9	H	0.573900	0.620400	0.577700	0.097883
H10	H	0.427600	0.565600	0.514300	0.128611
H11	H	0.305600	0.458300	0.681800	0.129554
H12	H	0.407700	0.477900	0.794800	0.129554
H13	H	0.267900	0.198400	0.998100	0.129554
H14	H	0.372800	0.323800	0.008500	0.130549
H15	H	0.259200	0.494300	0.892500	0.133217
H16	H	0.108100	0.423500	0.847900	0.097883
H17	H	0.000900	0.302700	0.840500	0.097883
H18	H	0.982500	0.180700	0.871900	0.128611
H19	H	0.800700	0.390000	0.304500	0.128611
H20	H	0.817100	0.364300	0.189000	0.097883
H21	H	0.926100	0.379600	0.077700	0.097883
H22	H	0.072400	0.434400	0.014300	0.128611
H23	H	0.194400	0.541700	0.181800	0.129554
H24	H	0.092300	0.522100	0.294800	0.129554
H25	H	0.767900	0.301600	0.001900	0.129554
H26	H	0.872800	0.176200	0.991500	0.130549
H27	H	0.759200	0.005700	0.107500	0.133217
H28	H	0.608100	0.076500	0.152100	0.097883
H29	H	0.500900	0.197300	0.159500	0.097883
H30	H	0.482500	0.319300	0.128100	0.128611
H31	H	0.300700	0.110000	0.695500	0.128611
H32	H	0.317100	0.135700	0.811000	0.097883
H33	H	0.426100	0.120400	0.922300	0.097883
H34	H	0.572400	0.065600	0.985700	0.128611
H35	H	0.694400	0.958300	0.818200	0.129554
H36	H	0.592300	0.977900	0.705200	0.129554
H37	H	0.732100	0.698400	0.501900	0.129554
H38	H	0.627200	0.823800	0.491500	0.130549
H39	H	0.740800	0.994300	0.607500	0.133217
H40	H	0.891900	0.923500	0.652100	0.097883
H41	H	0.999100	0.802700	0.659500	0.097883
H42	H	0.017500	0.680700	0.628100	0.128611
H43	H	0.199300	0.890000	0.195500	0.128611
H44	H	0.182900	0.864300	0.311000	0.097883
H45	H	0.073900	0.879600	0.422300	0.097883
H46	H	0.927600	0.934400	0.485700	0.128611
H47	H	0.805600	0.041700	0.318200	0.129554
H48	H	0.907700	0.022100	0.205200	0.129554
H49	H	0.767900	0.198400	0.501900	0.129554
H50	H	0.872800	0.323800	0.491500	0.130549
H51	H	0.759200	0.494300	0.607500	0.133217
H52	H	0.608100	0.423500	0.652100	0.097883
H53	H	0.500900	0.302700	0.659500	0.097883
H54	H	0.482500	0.180700	0.628100	0.128611
H55	H	0.300700	0.390000	0.195500	0.128611
H56	H	0.317100	0.364300	0.311000	0.097883
H57	H	0.426100	0.379600	0.422300	0.097883
H58	H	0.572400	0.434400	0.485700	0.128611
H59	H	0.694400	0.541700	0.318200	0.129554
H60	H	0.592300	0.522100	0.205200	0.129554
H61	H	0.732100	0.801600	0.001900	0.129554
H62	H	0.627200	0.676200	0.991500	0.130549
H63	H	0.740800	0.505700	0.107500	0.133217
H64	H	0.891900	0.576500	0.152100	0.097883
H65	H	0.999100	0.697300	0.159500	0.097883
H66	H	0.017500	0.819300	0.128100	0.128611
H67	H	0.199300	0.610000	0.695500	0.128611
H68	H	0.182900	0.635700	0.811000	0.097883
H69	H	0.073900	0.620400	0.922300	0.097883
H70	H	0.927600	0.565600	0.985700	0.128611
H71	H	0.805600	0.458300	0.818200	0.129554
H72	H	0.907700	0.477900	0.705200	0.129554
H73	H	0.232100	0.698400	0.998100	0.129554
H74	H	0.127200	0.823800	0.008500	0.130549
H75	H	0.240800	0.994300	0.892500	0.133217
H76	H	0.391900	0.923500	0.847900	0.097883
H77	H	0.499100	0.802700	0.840500	0.097883
H78	H	0.517500	0.680700	0.871900	0.128611
H79	H	0.699300	0.890000	0.304500	0.128611
H80	H	0.682900	0.864300	0.189000	0.097883
H81	H	0.573900	0.879600	0.077700	0.097883
H82	H	0.427600	0.934400	0.014300	0.128611
H83	H	0.305600	0.041700	0.181800	0.129554
H84	H	0.407700	0.022100	0.294800	0.129554
H85	H	0.267900	0.301600	0.498100	0.129554
H86	H	0.372800	0.176200	0.508500	0.130549
H87	H	0.259200	0.005700	0.392500	0.133217
H88	H	0.108100	0.076500	0.347900	0.097883
H89	H	0.000900	0.197300	0.340500	0.097883
H90	H	0.982500	0.319300	0.371900	0.128611
H91	H	0.800700	0.110000	0.804500	0.128611
H92	H	0.817100	0.135700	0.689000	0.097883
H93	H	0.926100	0.120400	0.577700	0.097883
H94	H	0.072400	0.065600	0.514300	0.128611
H95	H	0.194400	0.958300	0.681800	0.129554
H96	H	0.092300	0.977900	0.794800	0.129554
C1	C	0.374700	0.821500	0.437600	0.376138
C2	C	0.284700	0.780100	0.466600	-0.286822
C3	C	0.272300	0.703900	0.448200	0.108741
C4	C	0.179900	0.657300	0.475800	-0.270339
C5	C	0.168100	0.585200	0.454600	0.372884
C6	C	0.249000	0.555000	0.406100	-0.232099
C7	C	0.338800	0.597400	0.379300	-0.052701
C8	C	0.352700	0.673600	0.398700	0.003765
C9	C	0.444900	0.717700	0.371700	-0.057768
C10	C	0.456100	0.790300	0.390400	-0.248098
C11	C	0.552000	0.541200	0.810400	0.376138
C12	C	0.637400	0.589000	0.778800	-0.248098
C13	C	0.627500	0.604000	0.709600	-0.057768
C14	C	0.535000	0.572300	0.669700	0.003765
C15	C	0.521300	0.587300	0.598800	-0.057768
C16	C	0.434000	0.554900	0.560900	-0.248098
C17	C	0.351200	0.504300	0.592100	0.376138
C18	C	0.360600	0.490300	0.661200	-0.286822
C19	C	0.450800	0.523100	0.701800	0.107910
C20	C	0.462400	0.509300	0.773200	-0.286822
C21	C	0.125300	0.178500	0.937600	0.376138
C22	C	0.215300	0.219900	0.966600	-0.286822
C23	C	0.227700	0.296100	0.948200	0.108741
C24	C	0.320100	0.342700	0.975800	-0.270339
C25	C	0.331900	0.414800	0.954600	0.372884
C26	C	0.251000	0.445000	0.906100	-0.232099
C27	C	0.161200	0.402600	0.879300	-0.052701
C28	C	0.147300	0.326400	0.898700	0.003765
C29	C	0.055100	0.282300	0.871700	-0.057768
C30	C	0.043900	0.209700	0.890400	-0.248098
C31	C	0.948000	0.458800	0.310400	0.376138
C32	C	0.862600	0.411000	0.278800	-0.248098
C33	C	0.872500	0.396000	0.209600	-0.057768
C34	C	0.965000	0.427700	0.169700	0.003765
C35	C	0.978700	0.412700	0.098800	-0.057768
C36	C	0.066000	0.445100	0.060900	-0.248098
C37	C	0.148800	0.495700	0.092100	0.376138
C38	C	0.139400	0.509700	0.161200	-0.286822
C39	C	0.049200	0.476900	0.201800	0.107910
C40	C	0.037600	0.490700	0.273200	-0.286822
C41	C	0.625300	0.321500	0.062400	0.376138
C42	C	0.715300	0.280100	0.033400	-0.286822
C43	C	0.727700	0.203900	0.051800	0.108741
C44	C	0.820100	0.157300	0.024200	-0.270339
C45	C	0.831900	0.085200	0.045400	0.372884
C46	C	0.751000	0.055000	0.093900	-0.232099
C47	C	0.661200	0.097400	0.120700	-0.052701
C48	C	0.647300	0.173600	0.101300	0.003765
C49	C	0.555100	0.217700	0.128300	-0.057768
C50	C	0.543900	0.290300	0.109600	-0.248098
C51	C	0.448000	0.041200	0.689600	0.376138
C52	C	0.362600	0.089000	0.721200	-0.248098
C53	C	0.372500	0.104000	0.790400	-0.057768
C54	C	0.465000	0.072300	0.830300	0.003765
C55	C	0.478700	0.087300	0.901200	-0.057768
C56	C	0.566000	0.054900	0.939100	-0.248098
C57	C	0.648800	0.004300	0.907900	0.376138
C58	C	0.639400	0.990300	0.838800	-0.286822
C59	C	0.549200	0.023100	0.798200	0.107910
C60	C	0.537600	0.009300	0.726800	-0.286822
C61	C	0.874700	0.678500	0.562400	0.376138
C62	C	0.784700	0.719900	0.533400	-0.286822
C63	C	0.772300	0.796100	0.551800	0.108741
C64	C	0.679900	0.842700	0.524200	-0.270339
C65	C	0.668100	0.914800	0.545400	0.372884
C66	C	0.749000	0.945000	0.593900	-0.232099
C67	C	0.838800	0.902600	0.620700	-0.052701
C68	C	0.852700	0.826400	0.601300	0.003765
C69	C	0.944900	0.782300	0.628300	-0.057768
C70	C	0.956100	0.709700	0.609600	-0.248098
C71	C	0.052000	0.958800	0.189600	0.376138
C72	C	0.137400	0.911000	0.221200	-0.248098
C73	C	0.127500	0.896000	0.290400	-0.057768
C74	C	0.035000	0.927700	0.330300	0.003765
C75	C	0.021300	0.912700	0.401200	-0.057768
C76	C	0.934000	0.945100	0.439100	-0.248098
C77	C	0.851200	0.995700	0.407900	0.376138
C78	C	0.860600	0.009700	0.338800	-0.286822
C79	C	0.950800	0.976900	0.298200	0.107910
C80	C	0.962400	0.990700	0.226800	-0.286822
C81	C	0.625300	0.178500	0.562400	0.376138
C82	C	0.715300	0.219900	0.533400	-0.286822
C83	C	0.727700	0.296100	0.551800	0.108741
C84	C	0.820100	0.342700	0.524200	-0.270339
C85	C	0.831900	0.414800	0.545400	0.372884
C86	C	0.751000	0.445000	0.593900	-0.232099
C87	C	0.661200	0.402600	0.620700	-0.052701
C88	C	0.647300	0.326400	0.601300	0.003765
C89	C	0.555100	0.282300	0.628300	-0.057768
C90	C	0.543900	0.209700	0.609600	-0.248098
C91	C	0.448000	0.458800	0.189600	0.376138
C92	C	0.362600	0.411000	0.221200	-0.248098
C93	C	0.372500	0.396000	0.290400	-0.057768
C94	C	0.465000	0.427700	0.330300	0.003765
C95	C	0.478700	0.412700	0.401200	-0.057768
C96	C	0.566000	0.445100	0.439100	-0.248098
C97	C	0.648800	0.495700	0.407900	0.376138
C98	C	0.639400	0.509700	0.338800	-0.286822
C99	C	0.549200	0.476900	0.298200	0.107910
C100	C	0.537600	0.490700	0.226800	-0.286822
C101	C	0.874700	0.821500	0.062400	0.376138
C102	C	0.784700	0.780100	0.033400	-0.286822
C103	C	0.772300	0.703900	0.051800	0.108741
C104	C	0.679900	0.657300	0.024200	-0.270339
C105	C	0.668100	0.585200	0.045400	0.372884
C106	C	0.749000	0.555000	0.093900	-0.232099
C107	C	0.838800	0.597400	0.120700	-0.052701
C108	C	0.852700	0.673600	0.101300	0.003765
C109	C	0.944900	0.717700	0.128300	-0.057768
C110	C	0.956100	0.790300	0.109600	-0.248098
C111	C	0.052000	0.541200	0.689600	0.376138
C112	C	0.137400	0.589000	0.721200	-0.248098
C113	C	0.127500	0.604000	0.790400	-0.057768
C114	C	0.035000	0.572300	0.830300	0.003765
C115	C	0.021300	0.587300	0.901200	-0.057768
C116	C	0.934000	0.554900	0.939100	-0.248098
C117	C	0.851200	0.504300	0.907900	0.376138
C118	C	0.860600	0.490300	0.838800	-0.286822
C119	C	0.950800	0.523100	0.798200	0.107910
C120	C	0.962400	0.509300	0.726800	-0.286822
C121	C	0.374700	0.678500	0.937600	0.376138
C122	C	0.284700	0.719900	0.966600	-0.286822
C123	C	0.272300	0.796100	0.948200	0.108741
C124	C	0.179900	0.842700	0.975800	-0.270339
C125	C	0.168100	0.914800	0.954600	0.372884
C126	C	0.249000	0.945000	0.906100	-0.232099
C127	C	0.338800	0.902600	0.879300	-0.052701
C128	C	0.352700	0.826400	0.898700	0.003765
C129	C	0.444900	0.782300	0.871700	-0.057768
C130	C	0.456100	0.709700	0.890400	-0.248098
C131	C	0.552000	0.958800	0.310400	0.376138
C132	C	0.637400	0.911000	0.278800	-0.248098
C133	C	0.627500	0.896000	0.209600	-0.057768
C134	C	0.535000	0.927700	0.169700	0.003765
C135	C	0.521300	0.912700	0.098800	-0.057768
C136	C	0.434000	0.945100	0.060900	-0.248098
C137	C	0.351200	0.995700	0.092100	0.376138
C138	C	0.360600	0.009700	0.161200	-0.286822
C139	C	0.450800	0.976900	0.201800	0.107910
C140	C	0.462400	0.990700	0.273200	-0.286822
C141	C	0.125300	0.321500	0.437600	0.376138
C142	C	0.215300	0.280100	0.466600	-0.286822
C143	C	0.227700	0.203900	0.448200	0.108741
C144	C	0.320100	0.157300	0.475800	-0.270339
C145	C	0.331900	0.085200	0.454600	0.372884
C146	C	0.251000	0.055000	0.406100	-0.232099
C147	C	0.161200	0.097400	0.379300	-0.052701
C148	C	0.147300	0.173600	0.398700	0.003765
C149	C	0.055100	0.217700	0.371700	-0.057768
C150	C	0.043900	0.290300	0.390400	-0.248098
C151	C	0.948000	0.041200	0.810400	0.376138
C152	C	0.862600	0.089000	0.778800	-0.248098
C153	C	0.872500	0.104000	0.709600	-0.057768
C154	C	0.965000	0.072300	0.669700	0.003765
C155	C	0.978700	0.087300	0.598800	-0.057768
C156	C	0.066000	0.054900	0.560900	-0.248098
C157	C	0.148800	0.004300	0.592100	0.376138
C158	C	0.139400	0.990300	0.661200	-0.286822
C159	C	0.049200	0.023100	0.701800	0.107910
C160	C	0.037600	0.009300	0.773200	-0.286822
O1	O	0.383800	0.896300	0.453600	-0.661501
O2	O	0.077100	0.541300	0.480100	-0.835165
O3	O	0.560100	0.531600	0.880000	-0.661501
O4	O	0.263400	0.472700	0.553300	-0.661501
O5	O	0.116200	0.103700	0.953600	-0.661501
O6	O	0.422900	0.458700	0.980100	-0.835165
O7	O	0.939900	0.468400	0.380000	-0.661501
O8	O	0.236600	0.527300	0.053300	-0.661501
O9	O	0.616200	0.396300	0.046400	-0.661501
O10	O	0.922900	0.041300	0.019900	-0.835165
O11	O	0.439900	0.031600	0.620000	-0.661501
O12	O	0.736600	0.972700	0.946700	-0.661501
O13	O	0.883800	0.603700	0.546400	-0.661501
O14	O	0.577100	0.958700	0.519900	-0.835165
O15	O	0.060100	0.968400	0.120000	-0.661501
O16	O	0.763400	0.027300	0.446700	-0.661501
O17	O	0.616200	0.103700	0.546400	-0.661501
O18	O	0.922900	0.458700	0.519900	-0.835165
O19	O	0.439900	0.468400	0.120000	-0.661501
O20	O	0.736600	0.527300	0.446700	-0.661501
O21	O	0.883800	0.896300	0.046400	-0.661501
O22	O	0.577100	0.541300	0.019900	-0.835165
O23	O	0.060100	0.531600	0.620000	-0.661501
O24	O	0.763400	0.472700	0.946700	-0.661501
O25	O	0.383800	0.603700	0.953600	-0.661501
O26	O	0.077100	0.958700	0.980100	-0.835165
O27	O	0.560100	0.968400	0.380000	-0.661501
O28	O	0.263400	0.027300	0.053300	-0.661501
O29	O	0.116200	0.396300	0.453600	-0.661501
O30	O	0.422900	0.041300	0.480100	-0.835165
O31	O	0.939900	0.031600	0.880000	-0.661501
O32	O	0.236600	0.972700	0.553300	-0.661501
