data_MASZUD_clean_PM
_symmetry_space_group_name_H-M	'P1'
_cell_length_a	15.037300
_cell_length_b	15.037300
_cell_length_c	18.102600
_cell_angle_alpha	94.472299
_cell_angle_beta	94.472299
_cell_angle_gamma	90.085901
_symmetry_Int_Tables_number 1

loop_
_symmetry_equiv_pos_as_xyz
'x,y,z'

loop_
_atom_site_label
_atom_site_type_symbol
_atom_site_fract_x
_atom_site_fract_y
_atom_site_fract_z
_atom_site_charge
Cu1	Cu	0.406230	0.230470	0.474260	0.256662
Cu2	Cu	0.196310	0.374570	0.510480	0.185183
Cu3	Cu	0.281000	0.195100	0.641250	0.256662
Cu4	Cu	0.769530	0.593770	0.025740	0.256662
Cu5	Cu	0.625430	0.803690	0.989520	0.185183
Cu6	Cu	0.804900	0.719000	0.858750	0.256662
Cu7	Cu	0.593770	0.769530	0.525740	0.256662
Cu8	Cu	0.803690	0.625430	0.489520	0.185183
Cu9	Cu	0.719000	0.804900	0.358750	0.256662
Cu10	Cu	0.230470	0.406230	0.974260	0.256662
Cu11	Cu	0.374570	0.196310	0.010480	0.185183
Cu12	Cu	0.195100	0.281000	0.141250	0.256662
Mo1	Mo	0.232810	0.197690	0.495900	0.422251
Mo2	Mo	0.802310	0.767190	0.004100	0.422251
Mo3	Mo	0.767190	0.802310	0.504100	0.422251
Mo4	Mo	0.197690	0.232810	0.995900	0.422251
H1	H	0.566400	0.111800	0.432300	0.075990
H2	H	0.615500	0.033500	0.330100	0.126124
H3	H	0.420700	0.145300	0.206300	0.126124
H4	H	0.375100	0.216500	0.312300	0.075990
H5	H	0.716700	0.945900	0.105300	0.075199
H6	H	0.683600	0.034000	0.208100	0.126124
H7	H	0.426300	0.004500	0.139500	0.126124
H8	H	0.465400	0.913800	0.041100	0.075199
H9	H	0.620000	0.670000	0.807400	0.075990
H10	H	0.539300	0.572700	0.725300	0.126124
H11	H	0.767800	0.478400	0.653800	0.126124
H12	H	0.841800	0.581800	0.735500	0.075990
H13	H	0.405300	0.415500	0.532500	0.075990
H14	H	0.482900	0.520300	0.608700	0.126124
H15	H	0.684100	0.350500	0.621700	0.126124
H16	H	0.602300	0.252700	0.542000	0.075990
H17	H	0.842700	0.801700	0.711400	0.075990
H18	H	0.937100	0.899900	0.669000	0.126124
H19	H	0.080100	0.904500	0.864800	0.126124
H20	H	0.984400	0.801200	0.899800	0.075990
H21	H	0.888200	0.433600	0.067700	0.075990
H22	H	0.966500	0.384500	0.169900	0.126124
H23	H	0.854700	0.579300	0.293700	0.126124
H24	H	0.783500	0.624900	0.187700	0.075990
H25	H	0.054100	0.283300	0.394700	0.075199
H26	H	0.966000	0.316400	0.291900	0.126124
H27	H	0.995500	0.573700	0.360500	0.126124
H28	H	0.086200	0.534600	0.458900	0.075199
H29	H	0.330000	0.380000	0.692600	0.075990
H30	H	0.427300	0.460700	0.774700	0.126124
H31	H	0.521600	0.232200	0.846200	0.126124
H32	H	0.418200	0.158200	0.764500	0.075990
H33	H	0.584500	0.594700	0.967500	0.075990
H34	H	0.479700	0.517100	0.891300	0.126124
H35	H	0.649500	0.315900	0.878300	0.126124
H36	H	0.747300	0.397700	0.958000	0.075990
H37	H	0.198300	0.157300	0.788600	0.075990
H38	H	0.100100	0.062900	0.831000	0.126124
H39	H	0.095500	0.919900	0.635200	0.126124
H40	H	0.198800	0.015600	0.600200	0.075990
H41	H	0.433600	0.888200	0.567700	0.075990
H42	H	0.384500	0.966500	0.669900	0.126124
H43	H	0.579300	0.854700	0.793700	0.126124
H44	H	0.624900	0.783500	0.687700	0.075990
H45	H	0.283300	0.054100	0.894700	0.075199
H46	H	0.316400	0.966000	0.791900	0.126124
H47	H	0.573700	0.995500	0.860500	0.126124
H48	H	0.534600	0.086200	0.958900	0.075199
H49	H	0.380000	0.330000	0.192600	0.075990
H50	H	0.460700	0.427300	0.274700	0.126124
H51	H	0.232200	0.521600	0.346200	0.126124
H52	H	0.158200	0.418200	0.264500	0.075990
H53	H	0.594700	0.584500	0.467500	0.075990
H54	H	0.517100	0.479700	0.391300	0.126124
H55	H	0.315900	0.649500	0.378300	0.126124
H56	H	0.397700	0.747300	0.458000	0.075990
H57	H	0.157300	0.198300	0.288600	0.075990
H58	H	0.062900	0.100100	0.331000	0.126124
H59	H	0.919900	0.095500	0.135200	0.126124
H60	H	0.015600	0.198800	0.100200	0.075990
H61	H	0.111800	0.566400	0.932300	0.075990
H62	H	0.033500	0.615500	0.830100	0.126124
H63	H	0.145300	0.420700	0.706300	0.126124
H64	H	0.216500	0.375100	0.812300	0.075990
H65	H	0.945900	0.716700	0.605300	0.075199
H66	H	0.034000	0.683600	0.708100	0.126124
H67	H	0.004500	0.426300	0.639500	0.126124
H68	H	0.913800	0.465400	0.541100	0.075199
H69	H	0.670000	0.620000	0.307400	0.075990
H70	H	0.572700	0.539300	0.225300	0.126124
H71	H	0.478400	0.767800	0.153800	0.126124
H72	H	0.581800	0.841800	0.235500	0.075990
H73	H	0.415500	0.405300	0.032500	0.075990
H74	H	0.520300	0.482900	0.108700	0.126124
H75	H	0.350500	0.684100	0.121700	0.126124
H76	H	0.252700	0.602300	0.042000	0.075990
H77	H	0.801700	0.842700	0.211400	0.075990
H78	H	0.899900	0.937100	0.169000	0.126124
H79	H	0.904500	0.080100	0.364800	0.126124
H80	H	0.801200	0.984400	0.399800	0.075990
C1	C	0.536100	0.117700	0.386200	0.146044
C2	C	0.566700	0.070900	0.324700	-0.198264
C3	C	0.524500	0.079700	0.255000	0.084855
C4	C	0.451300	0.136500	0.251800	-0.198264
C5	C	0.424500	0.179500	0.315800	0.146044
C6	C	0.657100	0.956300	0.113200	0.140924
C7	C	0.637700	0.009900	0.175100	-0.196758
C8	C	0.550900	0.027500	0.187800	0.084855
C9	C	0.486100	0.991700	0.134600	-0.196758
C10	C	0.510100	0.937900	0.075300	0.140924
C11	C	0.650600	0.631200	0.775900	0.146044
C12	C	0.601200	0.572200	0.726900	-0.198264
C13	C	0.643900	0.511900	0.680100	0.084855
C14	C	0.735800	0.516800	0.684400	-0.198264
C15	C	0.779900	0.579300	0.734200	0.146044
C16	C	0.462500	0.401300	0.551300	0.146044
C17	C	0.508500	0.465100	0.597600	-0.198264
C18	C	0.593000	0.446600	0.627600	0.084855
C19	C	0.626500	0.365700	0.604700	-0.198264
C20	C	0.576300	0.306500	0.557100	0.146044
C21	C	0.891700	0.822100	0.742600	0.146044
C22	C	0.947600	0.881600	0.716800	-0.198264
C23	C	0.021000	0.915000	0.762800	0.084855
C24	C	0.032500	0.883900	0.832000	-0.198264
C25	C	0.974000	0.822400	0.853100	0.146044
C26	C	0.882300	0.463900	0.113800	0.146044
C27	C	0.929100	0.433300	0.175300	-0.198264
C28	C	0.920300	0.475500	0.245000	0.084855
C29	C	0.863500	0.548700	0.248200	-0.198264
C30	C	0.820500	0.575500	0.184200	0.146044
C31	C	0.043700	0.342900	0.386800	0.140924
C32	C	0.990100	0.362300	0.324900	-0.196758
C33	C	0.972500	0.449100	0.312200	0.084855
C34	C	0.008300	0.513900	0.365400	-0.196758
C35	C	0.062100	0.489900	0.424700	0.140924
C36	C	0.368800	0.349400	0.724100	0.146044
C37	C	0.427800	0.398800	0.773100	-0.198264
C38	C	0.488100	0.356100	0.819900	0.084855
C39	C	0.483200	0.264200	0.815600	-0.198264
C40	C	0.420700	0.220100	0.765800	0.146044
C41	C	0.598700	0.537500	0.948700	0.146044
C42	C	0.534900	0.491500	0.902400	-0.198264
C43	C	0.553400	0.407000	0.872400	0.084855
C44	C	0.634300	0.373500	0.895300	-0.198264
C45	C	0.693500	0.423700	0.942900	0.146044
C46	C	0.177900	0.108300	0.757400	0.146044
C47	C	0.118400	0.052400	0.783200	-0.198264
C48	C	0.085000	0.979000	0.737200	0.084855
C49	C	0.116100	0.967500	0.668000	-0.198264
C50	C	0.177600	0.026000	0.646900	0.146044
C51	C	0.463900	0.882300	0.613800	0.146044
C52	C	0.433300	0.929100	0.675300	-0.198264
C53	C	0.475500	0.920300	0.745000	0.084855
C54	C	0.548700	0.863500	0.748200	-0.198264
C55	C	0.575500	0.820500	0.684200	0.146044
C56	C	0.342900	0.043700	0.886800	0.140924
C57	C	0.362300	0.990100	0.824900	-0.196758
C58	C	0.449100	0.972500	0.812200	0.084855
C59	C	0.513900	0.008300	0.865400	-0.196758
C60	C	0.489900	0.062100	0.924700	0.140924
C61	C	0.349400	0.368800	0.224100	0.146044
C62	C	0.398800	0.427800	0.273100	-0.198264
C63	C	0.356100	0.488100	0.319900	0.084855
C64	C	0.264200	0.483200	0.315600	-0.198264
C65	C	0.220100	0.420700	0.265800	0.146044
C66	C	0.537500	0.598700	0.448700	0.146044
C67	C	0.491500	0.534900	0.402400	-0.198264
C68	C	0.407000	0.553400	0.372400	0.084855
C69	C	0.373500	0.634300	0.395300	-0.198264
C70	C	0.423700	0.693500	0.442900	0.146044
C71	C	0.108300	0.177900	0.257400	0.146044
C72	C	0.052400	0.118400	0.283200	-0.198264
C73	C	0.979000	0.085000	0.237200	0.084855
C74	C	0.967500	0.116100	0.168000	-0.198264
C75	C	0.026000	0.177600	0.146900	0.146044
C76	C	0.117700	0.536100	0.886200	0.146044
C77	C	0.070900	0.566700	0.824700	-0.198264
C78	C	0.079700	0.524500	0.755000	0.084855
C79	C	0.136500	0.451300	0.751800	-0.198264
C80	C	0.179500	0.424500	0.815800	0.146044
C81	C	0.956300	0.657100	0.613200	0.140924
C82	C	0.009900	0.637700	0.675100	-0.196758
C83	C	0.027500	0.550900	0.687800	0.084855
C84	C	0.991700	0.486100	0.634600	-0.196758
C85	C	0.937900	0.510100	0.575300	0.140924
C86	C	0.631200	0.650600	0.275900	0.146044
C87	C	0.572200	0.601200	0.226900	-0.198264
C88	C	0.511900	0.643900	0.180100	0.084855
C89	C	0.516800	0.735800	0.184400	-0.198264
C90	C	0.579300	0.779900	0.234200	0.146044
C91	C	0.401300	0.462500	0.051300	0.146044
C92	C	0.465100	0.508500	0.097600	-0.198264
C93	C	0.446600	0.593000	0.127600	0.084855
C94	C	0.365700	0.626500	0.104700	-0.198264
C95	C	0.306500	0.576300	0.057100	0.146044
C96	C	0.822100	0.891700	0.242600	0.146044
C97	C	0.881600	0.947600	0.216800	-0.198264
C98	C	0.915000	0.021000	0.262800	0.084855
C99	C	0.883900	0.032500	0.332000	-0.198264
C100	C	0.822400	0.974000	0.353100	0.146044
S1	S	0.281910	0.301250	0.425050	-0.433352
S2	S	0.353750	0.127190	0.546420	-0.471348
S3	S	0.162830	0.270390	0.589040	-0.433352
S4	S	0.698750	0.718090	0.074950	-0.433352
S5	S	0.872810	0.646250	0.953580	-0.471348
S6	S	0.729610	0.837170	0.910960	-0.433352
S7	S	0.718090	0.698750	0.574950	-0.433352
S8	S	0.646250	0.872810	0.453580	-0.471348
S9	S	0.837170	0.729610	0.410960	-0.433352
S10	S	0.301250	0.281910	0.925050	-0.433352
S11	S	0.127190	0.353750	0.046420	-0.471348
S12	S	0.270390	0.162830	0.089040	-0.433352
I1	I	0.246690	0.527590	0.570140	-0.360934
I2	I	0.472410	0.753310	0.929860	-0.360934
I3	I	0.753310	0.472410	0.429860	-0.360934
I4	I	0.527590	0.246690	0.070140	-0.360934
N1	N	0.465600	0.170800	0.383000	-0.274756
N2	N	0.595200	0.918400	0.064000	-0.237156
N3	N	0.739000	0.636200	0.780800	-0.274756
N4	N	0.492900	0.321100	0.531300	-0.274756
N5	N	0.902400	0.791200	0.809700	-0.274756
N6	N	0.829200	0.534400	0.117000	-0.274756
N7	N	0.081600	0.404800	0.436000	-0.237156
N8	N	0.363800	0.261000	0.719200	-0.274756
N9	N	0.678900	0.507100	0.968700	-0.274756
N10	N	0.208800	0.097600	0.690300	-0.274756
N11	N	0.534400	0.829200	0.617000	-0.274756
N12	N	0.404800	0.081600	0.936000	-0.237156
N13	N	0.261000	0.363800	0.219200	-0.274756
N14	N	0.507100	0.678900	0.468700	-0.274756
N15	N	0.097600	0.208800	0.190300	-0.274756
N16	N	0.170800	0.465600	0.883000	-0.274756
N17	N	0.918400	0.595200	0.564000	-0.237156
N18	N	0.636200	0.739000	0.280800	-0.274756
N19	N	0.321100	0.492900	0.031300	-0.274756
N20	N	0.791200	0.902400	0.309700	-0.274756
