data_MATVEJ_clean_PM
_symmetry_space_group_name_H-M	'P1'
_cell_length_a	15.164400
_cell_length_b	15.172900
_cell_length_c	22.273000
_cell_angle_alpha	82.987001
_cell_angle_beta	78.446000
_cell_angle_gamma	72.770998
_symmetry_Int_Tables_number 1

loop_
_symmetry_equiv_pos_as_xyz
'x,y,z'

loop_
_atom_site_label
_atom_site_type_symbol
_atom_site_fract_x
_atom_site_fract_y
_atom_site_fract_z
_atom_site_charge
Zn1	Zn	0.882420	0.717130	0.667260	0.929355
Zn2	Zn	0.846430	0.703250	0.801710	0.929355
Zn3	Zn	0.117580	0.282880	0.332740	0.929355
Zn4	Zn	0.153570	0.296750	0.198290	0.929355
H1	H	0.725600	0.785600	0.918300	0.081977
H2	H	0.734600	0.781800	0.020800	0.148789
H3	H	0.983400	0.592200	0.989600	0.148789
H4	H	0.965900	0.597100	0.888700	0.081977
H5	H	0.882800	0.480200	0.206200	0.102695
H6	H	0.886900	0.487200	0.309700	0.102695
H7	H	0.896000	0.911600	0.258400	0.102695
H8	H	0.886000	0.905900	0.155600	0.102695
H9	H	0.777600	0.811500	0.466900	0.148789
H10	H	0.773900	0.813000	0.570300	0.081977
H11	H	0.010100	0.619900	0.561800	0.081977
H12	H	0.019900	0.612900	0.457700	0.148789
H13	H	0.116000	0.721000	0.814900	0.102651
H14	H	0.263800	0.730300	0.817300	0.107802
H15	H	0.344200	0.667300	0.641700	0.107802
H16	H	0.193900	0.663500	0.638800	0.102651
H17	H	0.416400	0.667300	0.820500	0.107802
H18	H	0.561200	0.680600	0.824700	0.102651
H19	H	0.592900	0.765600	0.646000	0.102651
H20	H	0.446600	0.753100	0.642200	0.107802
H21	H	0.783600	0.001900	0.823500	0.102651
H22	H	0.790100	0.151400	0.824100	0.107802
H23	H	0.912700	0.144700	0.647700	0.107802
H24	H	0.901700	0.996600	0.646700	0.102651
H25	H	0.872300	0.253400	0.826000	0.107802
H26	H	0.884900	0.401200	0.827800	0.102651
H27	H	0.866900	0.446100	0.648800	0.102651
H28	H	0.854700	0.298600	0.647500	0.107802
H29	H	0.274400	0.214400	0.081700	0.081977
H30	H	0.265400	0.218200	0.979200	0.148789
H31	H	0.016600	0.407800	0.010400	0.148789
H32	H	0.034100	0.402900	0.111300	0.081977
H33	H	0.117200	0.519800	0.793800	0.102695
H34	H	0.113100	0.512800	0.690300	0.102695
H35	H	0.104000	0.088400	0.741600	0.102695
H36	H	0.114000	0.094100	0.844400	0.102695
H37	H	0.222400	0.188500	0.533100	0.148789
H38	H	0.226100	0.187000	0.429700	0.081977
H39	H	0.989900	0.380100	0.438200	0.081977
H40	H	0.980100	0.387100	0.542300	0.148789
H41	H	0.884000	0.279000	0.185100	0.102651
H42	H	0.736200	0.269700	0.182700	0.107802
H43	H	0.655800	0.332700	0.358300	0.107802
H44	H	0.806100	0.336500	0.361200	0.102651
H45	H	0.583600	0.332700	0.179500	0.107802
H46	H	0.438800	0.319400	0.175300	0.102651
H47	H	0.407100	0.234400	0.354000	0.102651
H48	H	0.553400	0.246900	0.357800	0.107802
H49	H	0.216400	0.998100	0.176500	0.102651
H50	H	0.209900	0.848600	0.175900	0.107802
H51	H	0.087300	0.855300	0.352300	0.107802
H52	H	0.098300	0.003400	0.353300	0.102651
H53	H	0.127700	0.746600	0.174000	0.107802
H54	H	0.115100	0.598800	0.172200	0.102651
H55	H	0.133100	0.553900	0.351200	0.102651
H56	H	0.145300	0.701400	0.352500	0.107802
C1	C	0.777770	0.746300	0.932920	0.202725
C2	C	0.782950	0.745010	0.994230	-0.252496
C3	C	0.861660	0.687780	0.015120	0.262135
C4	C	0.930530	0.631870	0.975940	-0.252496
C5	C	0.919580	0.635800	0.915430	0.202725
C6	C	0.877900	0.772050	0.096080	0.504650
C7	C	0.884000	0.774560	0.161200	-0.132202
C8	C	0.884150	0.694690	0.201630	0.067435
C9	C	0.883030	0.610950	0.180630	-0.132202
C10	C	0.878110	0.606280	0.115270	0.504650
C11	C	0.883820	0.534980	0.220350	-0.069376
C12	C	0.886250	0.539280	0.282770	-0.069376
C13	C	0.887640	0.618390	0.303740	-0.132202
C14	C	0.887970	0.698960	0.263760	0.067435
C15	C	0.891820	0.780450	0.284460	-0.132202
C16	C	0.892350	0.857710	0.244470	-0.069376
C17	C	0.887230	0.853700	0.182450	-0.069376
C18	C	0.896760	0.785160	0.349510	0.504650
C19	C	0.891220	0.622040	0.370100	0.504650
C20	C	0.897160	0.709930	0.452060	0.262135
C21	C	0.825310	0.771220	0.485540	-0.252496
C22	C	0.824330	0.772630	0.547290	0.202725
C23	C	0.962990	0.659180	0.542200	0.202725
C24	C	0.968860	0.653600	0.480000	-0.252496
C25	C	0.040580	0.693640	0.724660	0.670134
C26	C	0.138330	0.693640	0.726650	-0.128961
C27	C	0.161220	0.711890	0.779490	-0.025636
C28	C	0.250440	0.716900	0.781030	-0.141228
C29	C	0.320480	0.702230	0.729230	0.049486
C30	C	0.298140	0.680130	0.676440	-0.141228
C31	C	0.207880	0.676930	0.674830	-0.025636
C32	C	0.415160	0.709470	0.731050	0.049486
C33	C	0.451630	0.687520	0.785340	-0.141228
C34	C	0.538500	0.695200	0.787820	-0.025636
C35	C	0.592980	0.724510	0.736000	-0.128961
C36	C	0.557250	0.746020	0.681270	-0.025636
C37	C	0.469550	0.738550	0.678950	-0.141228
C38	C	0.689860	0.728490	0.738130	0.670134
C39	C	0.843550	0.884210	0.734980	0.670134
C40	C	0.843500	0.983070	0.735390	-0.128961
C41	C	0.809660	0.030500	0.787940	-0.025636
C42	C	0.814120	0.120210	0.788320	-0.141228
C43	C	0.853780	0.164550	0.736340	0.049486
C44	C	0.886460	0.116510	0.683360	-0.141228
C45	C	0.880520	0.027060	0.682830	-0.025636
C46	C	0.861960	0.259710	0.736990	0.049486
C47	C	0.871140	0.292040	0.790230	-0.141228
C48	C	0.878710	0.381020	0.791510	-0.025636
C49	C	0.877040	0.439500	0.738490	-0.128961
C50	C	0.868000	0.407490	0.684620	-0.025636
C51	C	0.860620	0.318910	0.683850	-0.141228
C52	C	0.881360	0.537400	0.739090	0.670134
C53	C	0.222230	0.253700	0.067080	0.202725
C54	C	0.217050	0.254990	0.005770	-0.252496
C55	C	0.138340	0.312220	0.984880	0.262135
C56	C	0.069470	0.368130	0.024060	-0.252496
C57	C	0.080420	0.364200	0.084570	0.202725
C58	C	0.122100	0.227950	0.903920	0.504650
C59	C	0.116000	0.225440	0.838800	-0.132202
C60	C	0.115850	0.305310	0.798370	0.067435
C61	C	0.116970	0.389050	0.819370	-0.132202
C62	C	0.121890	0.393720	0.884730	0.504650
C63	C	0.116180	0.465020	0.779650	-0.069376
C64	C	0.113750	0.460720	0.717230	-0.069376
C65	C	0.112360	0.381610	0.696260	-0.132202
C66	C	0.112030	0.301040	0.736240	0.067435
C67	C	0.108180	0.219550	0.715540	-0.132202
C68	C	0.107650	0.142290	0.755530	-0.069376
C69	C	0.112770	0.146300	0.817550	-0.069376
C70	C	0.103240	0.214840	0.650490	0.504650
C71	C	0.108780	0.377960	0.629900	0.504650
C72	C	0.102840	0.290070	0.547940	0.262135
C73	C	0.174690	0.228780	0.514460	-0.252496
C74	C	0.175670	0.227370	0.452710	0.202725
C75	C	0.037010	0.340820	0.457800	0.202725
C76	C	0.031140	0.346400	0.520000	-0.252496
C77	C	0.959420	0.306360	0.275340	0.670134
C78	C	0.861670	0.306360	0.273350	-0.128961
C79	C	0.838780	0.288110	0.220510	-0.025636
C80	C	0.749560	0.283100	0.218970	-0.141228
C81	C	0.679520	0.297770	0.270770	0.049486
C82	C	0.701860	0.319870	0.323560	-0.141228
C83	C	0.792120	0.323070	0.325170	-0.025636
C84	C	0.584840	0.290530	0.268950	0.049486
C85	C	0.548370	0.312480	0.214660	-0.141228
C86	C	0.461500	0.304800	0.212180	-0.025636
C87	C	0.407020	0.275490	0.264000	-0.128961
C88	C	0.442750	0.253980	0.318730	-0.025636
C89	C	0.530450	0.261450	0.321050	-0.141228
C90	C	0.310140	0.271510	0.261870	0.670134
C91	C	0.156450	0.115790	0.265020	0.670134
C92	C	0.156500	0.016930	0.264610	-0.128961
C93	C	0.190340	0.969500	0.212060	-0.025636
C94	C	0.185880	0.879790	0.211680	-0.141228
C95	C	0.146220	0.835450	0.263660	0.049486
C96	C	0.113540	0.883490	0.316640	-0.141228
C97	C	0.119480	0.972940	0.317170	-0.025636
C98	C	0.138040	0.740290	0.263010	0.049486
C99	C	0.128860	0.707960	0.209770	-0.141228
C100	C	0.121290	0.618980	0.208490	-0.025636
C101	C	0.122960	0.560500	0.261510	-0.128961
C102	C	0.132000	0.592510	0.315380	-0.025636
C103	C	0.139380	0.681090	0.316150	-0.141228
C104	C	0.118640	0.462600	0.260910	0.670134
N1	N	0.845890	0.692430	0.893620	-0.312984
N2	N	0.870230	0.689060	0.078480	-0.238104
N3	N	0.897670	0.704340	0.387800	-0.238104
N4	N	0.892320	0.718750	0.575300	-0.312984
N5	N	0.154110	0.307570	0.106380	-0.312984
N6	N	0.129770	0.310940	0.921520	-0.238104
N7	N	0.102330	0.295660	0.612200	-0.238104
N8	N	0.107680	0.281250	0.424700	-0.312984
O1	O	0.879330	0.836660	0.059210	-0.459364
O2	O	0.878130	0.536310	0.094570	-0.459364
O3	O	0.901970	0.853960	0.370550	-0.459364
O4	O	0.889020	0.556860	0.407180	-0.459364
O5	O	0.883400	0.583490	0.688420	-0.579576
O6	O	0.881730	0.565390	0.789670	-0.579576
O7	O	0.817210	0.844150	0.785750	-0.579576
O8	O	0.872010	0.847550	0.684450	-0.579576
O9	O	0.020920	0.686270	0.673740	-0.579576
O10	O	0.984590	0.701380	0.775000	-0.579576
O11	O	0.738470	0.748250	0.688430	-0.579576
O12	O	0.716190	0.710040	0.789480	-0.579576
O13	O	0.120670	0.163340	0.940790	-0.459364
O14	O	0.121870	0.463690	0.905430	-0.459364
O15	O	0.098030	0.146040	0.629450	-0.459364
O16	O	0.110980	0.443140	0.592820	-0.459364
O17	O	0.116600	0.416510	0.311580	-0.579576
O18	O	0.118270	0.434610	0.210330	-0.579576
O19	O	0.182790	0.155850	0.214250	-0.579576
O20	O	0.127990	0.152450	0.315550	-0.579576
O21	O	0.979080	0.313730	0.326260	-0.579576
O22	O	0.015410	0.298620	0.225000	-0.579576
O23	O	0.261530	0.251750	0.311570	-0.579576
O24	O	0.283810	0.289960	0.210520	-0.579576
