data_MAYYAN_clean_PM
_symmetry_space_group_name_H-M	'P1'
_cell_length_a	6.100800
_cell_length_b	7.580200
_cell_length_c	28.044000
_cell_angle_alpha	90.000000
_cell_angle_beta	90.000000
_cell_angle_gamma	90.000000
_symmetry_Int_Tables_number 1

loop_
_symmetry_equiv_pos_as_xyz
'x,y,z'

loop_
_atom_site_label
_atom_site_type_symbol
_atom_site_fract_x
_atom_site_fract_y
_atom_site_fract_z
_atom_site_charge
Pr1	Pr	0.568220	0.901850	0.668890	2.180946
Pr2	Pr	0.568220	0.098150	0.331110	2.180946
Pr3	Pr	0.431780	0.598150	0.168890	2.180946
Pr4	Pr	0.431780	0.401850	0.831110	2.180946
H1	H	0.471600	0.538200	0.635700	0.402715
H2	H	0.145900	0.467000	0.645200	0.111417
H3	H	0.285100	0.627200	0.751100	0.402715
H4	H	0.045900	0.371000	0.719000	0.111417
H5	H	0.703300	0.844100	0.499900	0.116982
H6	H	0.441200	0.843000	0.499200	0.116982
H7	H	0.471600	0.461800	0.364300	0.402715
H8	H	0.145900	0.533000	0.354800	0.111417
H9	H	0.285100	0.372800	0.248900	0.402715
H10	H	0.045900	0.629000	0.281000	0.111417
H11	H	0.703300	0.155900	0.500100	0.116982
H12	H	0.441200	0.157000	0.500800	0.116982
H13	H	0.528400	0.961800	0.135700	0.402715
H14	H	0.854100	0.033000	0.145200	0.111417
H15	H	0.714900	0.872800	0.251100	0.402715
H16	H	0.954100	0.129000	0.219000	0.111417
H17	H	0.296700	0.655900	0.999900	0.116982
H18	H	0.558800	0.657000	0.999200	0.116982
H19	H	0.528400	0.038200	0.864300	0.402715
H20	H	0.854100	0.967000	0.854800	0.111417
H21	H	0.714900	0.127200	0.748900	0.402715
H22	H	0.954100	0.871000	0.781000	0.111417
H23	H	0.296700	0.344100	0.000100	0.116982
H24	H	0.558800	0.343000	0.000800	0.116982
C1	C	0.071700	0.710600	0.675200	0.714745
C2	C	0.205000	0.540000	0.672000	0.041225
C3	C	0.190900	0.432500	0.718100	0.041225
C4	C	0.372800	0.293200	0.716800	0.714745
C5	C	0.568200	0.910000	0.564600	0.763261
C6	C	0.571000	0.908100	0.510800	-0.282917
C7	C	0.071700	0.289400	0.324800	0.714745
C8	C	0.205000	0.460000	0.328000	0.041225
C9	C	0.190900	0.567500	0.281900	0.041225
C10	C	0.372800	0.706800	0.283200	0.714745
C11	C	0.568200	0.090000	0.435400	0.763261
C12	C	0.571000	0.091900	0.489200	-0.282917
C13	C	0.928300	0.789400	0.175200	0.714745
C14	C	0.795000	0.960000	0.172000	0.041225
C15	C	0.809100	0.067500	0.218100	0.041225
C16	C	0.627200	0.206800	0.216800	0.714745
C17	C	0.431800	0.590000	0.064600	0.763261
C18	C	0.429000	0.591900	0.010800	-0.282917
C19	C	0.928300	0.210600	0.824800	0.714745
C20	C	0.795000	0.040000	0.828000	0.041225
C21	C	0.809100	0.932500	0.781900	0.041225
C22	C	0.627200	0.793200	0.783200	0.714745
C23	C	0.431800	0.410000	0.935400	0.763261
C24	C	0.429000	0.408100	0.989200	-0.282917
O1	O	0.172400	0.854000	0.671600	-0.679969
O2	O	0.867400	0.695300	0.680900	-0.679969
O3	O	0.426800	0.587600	0.661110	-0.640145
O4	O	0.212500	0.537000	0.759720	-0.640145
O5	O	0.374500	0.186000	0.682840	-0.679969
O6	O	0.509000	0.294000	0.750600	-0.679969
O7	O	0.678700	0.795800	0.586200	-0.717645
O8	O	0.453000	0.022500	0.586600	-0.717645
O9	O	0.172400	0.146000	0.328400	-0.679969
O10	O	0.867400	0.304700	0.319100	-0.679969
O11	O	0.426800	0.412400	0.338890	-0.640145
O12	O	0.212500	0.463000	0.240280	-0.640145
O13	O	0.374500	0.814000	0.317160	-0.679969
O14	O	0.509000	0.706000	0.249400	-0.679969
O15	O	0.678700	0.204200	0.413800	-0.717645
O16	O	0.453000	0.977500	0.413400	-0.717645
O17	O	0.827600	0.646000	0.171600	-0.679969
O18	O	0.132600	0.804700	0.180900	-0.679969
O19	O	0.573200	0.912400	0.161110	-0.640145
O20	O	0.787500	0.963000	0.259720	-0.640145
O21	O	0.625500	0.314000	0.182840	-0.679969
O22	O	0.491000	0.206000	0.250600	-0.679969
O23	O	0.321300	0.704200	0.086200	-0.717645
O24	O	0.547000	0.477500	0.086600	-0.717645
O25	O	0.827600	0.354000	0.828400	-0.679969
O26	O	0.132600	0.195300	0.819100	-0.679969
O27	O	0.573200	0.087600	0.838890	-0.640145
O28	O	0.787500	0.037000	0.740280	-0.640145
O29	O	0.625500	0.686000	0.817160	-0.679969
O30	O	0.491000	0.794000	0.749400	-0.679969
O31	O	0.321300	0.295800	0.913800	-0.717645
O32	O	0.547000	0.522500	0.913400	-0.717645
