data_MAZJEC_clean_PM
_symmetry_space_group_name_H-M	'P1'
_cell_length_a	9.016400
_cell_length_b	9.016400
_cell_length_c	17.078000
_cell_angle_alpha	90.000000
_cell_angle_beta	90.000000
_cell_angle_gamma	117.031001
_symmetry_Int_Tables_number 1

loop_
_symmetry_equiv_pos_as_xyz
'x,y,z'

loop_
_atom_site_label
_atom_site_type_symbol
_atom_site_fract_x
_atom_site_fract_y
_atom_site_fract_z
_atom_site_charge
Gd1	Gd	0.000000	0.000000	0.000000	2.120565
Gd2	Gd	0.000000	0.000000	0.500000	2.120565
Gd3	Gd	0.349910	0.655090	0.250000	2.160669
Gd4	Gd	0.655090	0.349910	0.750000	2.160669
H1	H	0.562000	0.965200	0.084300	0.100300
H2	H	0.502300	0.819300	0.023300	0.100300
H3	H	0.583400	0.981200	0.910000	0.100300
H4	H	0.624600	0.139400	0.961800	0.100300
H5	H	0.393900	0.401700	0.086500	0.100300
H6	H	0.316000	0.488800	0.032500	0.100300
H7	H	0.965200	0.562000	0.915700	0.100300
H8	H	0.819300	0.502300	0.976700	0.100300
H9	H	0.981200	0.583400	0.090000	0.100300
H10	H	0.139400	0.624600	0.038200	0.100300
H11	H	0.401700	0.393900	0.913500	0.100300
H12	H	0.488800	0.316000	0.967500	0.100300
H13	H	0.965200	0.562000	0.584300	0.100300
H14	H	0.819300	0.502300	0.523300	0.100300
H15	H	0.981200	0.583400	0.410000	0.100300
H16	H	0.139400	0.624600	0.461800	0.100300
H17	H	0.401700	0.393900	0.586500	0.100300
H18	H	0.488800	0.316000	0.532500	0.100300
H19	H	0.562000	0.965200	0.415700	0.100300
H20	H	0.502300	0.819300	0.476700	0.100300
H21	H	0.583400	0.981200	0.590000	0.100300
H22	H	0.624600	0.139400	0.538200	0.100300
H23	H	0.393900	0.401700	0.413500	0.100300
H24	H	0.316000	0.488800	0.467500	0.100300
C1	C	0.653500	0.802500	0.105900	0.754683
C2	C	0.597200	0.896800	0.053200	-0.068531
C3	C	0.669400	0.068600	0.940200	-0.068531
C4	C	0.815000	0.169000	0.889400	0.754683
C5	C	0.151500	0.336500	0.114200	0.754683
C6	C	0.295000	0.385000	0.057700	-0.068531
C7	C	0.802500	0.653500	0.894100	0.754683
C8	C	0.896800	0.597200	0.946800	-0.068531
C9	C	0.068600	0.669400	0.059800	-0.068531
C10	C	0.169000	0.815000	0.110600	0.754683
C11	C	0.336500	0.151500	0.885800	0.754683
C12	C	0.385000	0.295000	0.942300	-0.068531
C13	C	0.802500	0.653500	0.605900	0.754683
C14	C	0.896800	0.597200	0.553200	-0.068531
C15	C	0.068600	0.669400	0.440200	-0.068531
C16	C	0.169000	0.815000	0.389400	0.754683
C17	C	0.336500	0.151500	0.614200	0.754683
C18	C	0.385000	0.295000	0.557700	-0.068531
C19	C	0.653500	0.802500	0.394100	0.754683
C20	C	0.597200	0.896800	0.446800	-0.068531
C21	C	0.669400	0.068600	0.559800	-0.068531
C22	C	0.815000	0.169000	0.610600	0.754683
C23	C	0.151500	0.336500	0.385800	0.754683
C24	C	0.295000	0.385000	0.442300	-0.068531
O1	O	0.800800	0.827000	0.096200	-0.689824
O2	O	0.555800	0.707400	0.156400	-0.747705
O3	O	0.723900	0.999100	0.001500	-0.325525
O4	O	0.793700	0.248300	0.835100	-0.747705
O5	O	0.957100	0.176900	0.904200	-0.689824
O6	O	0.024400	0.203200	0.097900	-0.689824
O7	O	0.171000	0.437000	0.167400	-0.747705
O8	O	0.827000	0.800800	0.903800	-0.689824
O9	O	0.707400	0.555800	0.843600	-0.747705
O10	O	0.999100	0.723900	0.998500	-0.325525
O11	O	0.248300	0.793700	0.164900	-0.747705
O12	O	0.176900	0.957100	0.095800	-0.689824
O13	O	0.203200	0.024400	0.902100	-0.689824
O14	O	0.437000	0.171000	0.832600	-0.747705
O15	O	0.827000	0.800800	0.596200	-0.689824
O16	O	0.707400	0.555800	0.656400	-0.747705
O17	O	0.999100	0.723900	0.501500	-0.325525
O18	O	0.248300	0.793700	0.335100	-0.747705
O19	O	0.176900	0.957100	0.404200	-0.689824
O20	O	0.203200	0.024400	0.597900	-0.689824
O21	O	0.437000	0.171000	0.667400	-0.747705
O22	O	0.800800	0.827000	0.403800	-0.689824
O23	O	0.555800	0.707400	0.343600	-0.747705
O24	O	0.723900	0.999100	0.498500	-0.325525
O25	O	0.793700	0.248300	0.664900	-0.747705
O26	O	0.957100	0.176900	0.595800	-0.689824
O27	O	0.024400	0.203200	0.402100	-0.689824
O28	O	0.171000	0.437000	0.332600	-0.747705
O29	O	0.262000	0.262000	0.000000	-0.325525
O30	O	0.262000	0.262000	0.500000	-0.325525
