data_MIFQEY_clean_PM
_symmetry_space_group_name_H-M	'P1'
_cell_length_a	9.480100
_cell_length_b	9.480100
_cell_length_c	27.816000
_cell_angle_alpha	82.498698
_cell_angle_beta	82.498697
_cell_angle_gamma	63.037598
_symmetry_Int_Tables_number 1

loop_
_symmetry_equiv_pos_as_xyz
'x,y,z'

loop_
_atom_site_label
_atom_site_type_symbol
_atom_site_fract_x
_atom_site_fract_y
_atom_site_fract_z
_atom_site_charge
Ba1	Ba	0.414400	0.173200	0.770300	1.554058
Ba2	Ba	0.882600	0.194800	0.820100	1.601975
Ba3	Ba	0.173200	0.414400	0.270300	1.554058
Ba4	Ba	0.194800	0.882600	0.320100	1.601975
Na1	Na	0.996400	0.375600	0.558200	0.915333
Na2	Na	0.375600	0.996400	0.058200	0.915333
Co1	Co	0.944300	0.925700	0.691500	0.916648
Co2	Co	0.356400	0.446000	0.896900	0.916648
Co3	Co	0.925700	0.944300	0.191500	0.916648
Co4	Co	0.446000	0.356400	0.396900	0.916648
C1	C	0.042900	0.749900	0.612400	-0.027968
C2	C	0.165200	0.812400	0.614800	-0.027968
C3	C	0.771200	0.803000	0.656300	-0.167497
C4	C	0.675200	0.896600	0.699600	0.658346
C5	C	0.810100	0.012100	0.602000	0.015089
C6	C	0.847200	0.142800	0.613200	0.666695
C7	C	0.223400	0.951800	0.677500	-0.166720
C8	C	0.140000	0.017000	0.726600	0.660961
C9	C	0.251600	0.678600	0.696300	-0.069484
C10	C	0.137600	0.618000	0.722600	0.646483
C11	C	0.260600	0.619000	0.976800	-0.027968
C12	C	0.141200	0.551200	0.975400	-0.027968
C13	C	0.528400	0.570000	0.931800	-0.165580
C14	C	0.625200	0.475800	0.888200	0.666483
C15	C	0.495700	0.357900	0.985500	0.015089
C16	C	0.469000	0.222800	0.972200	0.666695
C17	C	0.082500	0.412300	0.913600	-0.166380
C18	C	0.161400	0.351400	0.863200	0.663929
C19	C	0.044400	0.687600	0.895400	-0.068950
C20	C	0.154100	0.751900	0.867000	0.652315
C21	C	0.749900	0.042900	0.112400	-0.027968
C22	C	0.812400	0.165200	0.114800	-0.027968
C23	C	0.803000	0.771200	0.156300	-0.167497
C24	C	0.896600	0.675200	0.199600	0.658346
C25	C	0.012100	0.810100	0.102000	0.015089
C26	C	0.142800	0.847200	0.113200	0.666695
C27	C	0.951800	0.223400	0.177500	-0.166720
C28	C	0.017000	0.140000	0.226600	0.660961
C29	C	0.678600	0.251600	0.196300	-0.069484
C30	C	0.618000	0.137600	0.222600	0.646483
C31	C	0.619000	0.260600	0.476800	-0.027968
C32	C	0.551200	0.141200	0.475400	-0.027968
C33	C	0.570000	0.528400	0.431800	-0.165580
C34	C	0.475800	0.625200	0.388200	0.666483
C35	C	0.357900	0.495700	0.485500	0.015089
C36	C	0.222800	0.469000	0.472200	0.666695
C37	C	0.412300	0.082500	0.413600	-0.166380
C38	C	0.351400	0.161400	0.363200	0.663929
C39	C	0.687600	0.044400	0.395400	-0.068950
C40	C	0.751900	0.154100	0.367000	0.652315
N1	N	0.888200	0.865800	0.635800	0.181289
N2	N	0.165500	0.834700	0.667800	0.213401
N3	N	0.415400	0.504000	0.952600	0.181289
N4	N	0.137000	0.530800	0.922800	0.213401
N5	N	0.865800	0.888200	0.135800	0.181289
N6	N	0.834700	0.165500	0.167800	0.213401
N7	N	0.504000	0.415400	0.452600	0.181289
N8	N	0.530800	0.137000	0.422800	0.213401
Cl1	Cl	0.340200	0.294400	0.623900	1.513280
Cl2	Cl	0.294400	0.340200	0.123900	1.513280
O1	O	0.555400	0.885000	0.718800	-0.559583
O2	O	0.725600	0.988400	0.715100	-0.638252
O3	O	0.825000	0.258600	0.584300	-0.639590
O4	O	0.899400	0.123800	0.656200	-0.568620
O5	O	0.187900	0.084100	0.750400	-0.559441
O6	O	0.011400	0.998000	0.741300	-0.653926
O7	O	0.183500	0.480100	0.740100	-0.561554
O8	O	0.990500	0.724100	0.725600	-0.558016
O9	O	0.749200	0.482200	0.870800	-0.583253
O10	O	0.571700	0.389700	0.871500	-0.654218
O11	O	0.504200	0.099200	0.999400	-0.639590
O12	O	0.409900	0.244300	0.930900	-0.568620
O13	O	0.112300	0.282100	0.840500	-0.583422
O14	O	0.285000	0.375000	0.847300	-0.638552
O15	O	0.104800	0.889200	0.848500	-0.584470
O16	O	0.302900	0.648900	0.863400	-0.558200
O17	O	0.402800	0.217800	0.668800	-0.444397
O18	O	0.357600	0.435000	0.610900	-0.558607
O19	O	0.421700	0.186100	0.586200	-0.558607
O20	O	0.170600	0.336800	0.627700	-0.711666
O21	O	0.679200	0.040200	0.833600	-0.390170
O22	O	0.612400	0.335000	0.756600	-0.390170
O23	O	0.885000	0.555400	0.218800	-0.559583
O24	O	0.988400	0.725600	0.215100	-0.638252
O25	O	0.258600	0.825000	0.084300	-0.639590
O26	O	0.123800	0.899400	0.156200	-0.568620
O27	O	0.084100	0.187900	0.250400	-0.559441
O28	O	0.998000	0.011400	0.241300	-0.653926
O29	O	0.480100	0.183500	0.240100	-0.561554
O30	O	0.724100	0.990500	0.225600	-0.558016
O31	O	0.482200	0.749200	0.370800	-0.583253
O32	O	0.389700	0.571700	0.371500	-0.654218
O33	O	0.099200	0.504200	0.499400	-0.639590
O34	O	0.244300	0.409900	0.430900	-0.568620
O35	O	0.282100	0.112300	0.340500	-0.583422
O36	O	0.375000	0.285000	0.347300	-0.638552
O37	O	0.889200	0.104800	0.348500	-0.584470
O38	O	0.648900	0.302900	0.363400	-0.558200
O39	O	0.217800	0.402800	0.168800	-0.444397
O40	O	0.435000	0.357600	0.110900	-0.558607
O41	O	0.186100	0.421700	0.086200	-0.558607
O42	O	0.336800	0.170600	0.127700	-0.711666
O43	O	0.040200	0.679200	0.333600	-0.390170
O44	O	0.335000	0.612400	0.256600	-0.390170
