data_MIHLUL_clean_PM
_symmetry_space_group_name_H-M	'P1'
_cell_length_a	11.773500
_cell_length_b	18.614400
_cell_length_c	27.902200
_cell_angle_alpha	90.000000
_cell_angle_beta	90.000000
_cell_angle_gamma	100.085001
_symmetry_Int_Tables_number 1

loop_
_symmetry_equiv_pos_as_xyz
'x,y,z'

loop_
_atom_site_label
_atom_site_type_symbol
_atom_site_fract_x
_atom_site_fract_y
_atom_site_fract_z
_atom_site_charge
Dy1	Dy	0.455070	0.955370	0.717010	2.207326
Dy2	Dy	0.751110	0.000990	0.032440	2.207326
Dy3	Dy	0.044930	0.044630	0.217010	2.207326
Dy4	Dy	0.748890	0.999010	0.532440	2.207326
Dy5	Dy	0.544930	0.044630	0.282990	2.207326
Dy6	Dy	0.248890	0.999010	0.967560	2.207326
Dy7	Dy	0.955070	0.955370	0.782990	2.207326
Dy8	Dy	0.251110	0.000990	0.467560	2.207326
H1	H	0.445000	0.404100	0.708000	0.127869
H2	H	0.353800	0.509900	0.728900	0.127869
H3	H	0.337600	0.671000	0.884500	0.125397
H4	H	0.440300	0.689100	0.961400	0.125397
H5	H	0.745300	0.548100	0.048700	0.127869
H6	H	0.837300	0.443300	0.029800	0.127869
H7	H	0.858400	0.281700	0.872700	0.125397
H8	H	0.754800	0.267600	0.795800	0.125397
H9	H	0.552200	0.471100	0.840200	0.297440
H10	H	0.655100	0.486000	0.915200	0.297440
H11	H	0.465300	0.707100	0.791200	0.114503
H12	H	0.178300	0.730600	0.716600	0.105005
H13	H	0.091800	0.615200	0.741400	0.106503
H14	H	0.190400	0.543200	0.787100	0.111382
H15	H	0.672200	0.736400	0.977400	0.113558
H16	H	0.603000	0.777300	0.116600	0.104533
H17	H	0.557300	0.654800	0.133200	0.106503
H18	H	0.546100	0.570400	0.068900	0.111382
H19	H	0.734500	0.250200	0.968600	0.114503
H20	H	0.040000	0.221200	0.024400	0.105005
H21	H	0.122500	0.338400	0.002000	0.106503
H22	H	0.012400	0.413100	0.960800	0.111382
H23	H	0.518600	0.220600	0.770800	0.113558
H24	H	0.611200	0.181700	0.636800	0.104533
H25	H	0.675200	0.307800	0.626300	0.106503
H26	H	0.668000	0.389900	0.686700	0.111382
H27	H	0.055000	0.595900	0.208000	0.127869
H28	H	0.146200	0.490100	0.228900	0.127869
H29	H	0.162400	0.329000	0.384500	0.125397
H30	H	0.059700	0.310900	0.461400	0.125397
H31	H	0.754700	0.451900	0.548700	0.127869
H32	H	0.662700	0.556700	0.529800	0.127869
H33	H	0.641600	0.718300	0.372700	0.125397
H34	H	0.745200	0.732400	0.295800	0.125397
H35	H	0.947800	0.528900	0.340200	0.297440
H36	H	0.844900	0.514000	0.415200	0.297440
H37	H	0.034700	0.292900	0.291200	0.114503
H38	H	0.321700	0.269400	0.216600	0.105005
H39	H	0.408200	0.384800	0.241400	0.106503
H40	H	0.309600	0.456800	0.287100	0.111382
H41	H	0.827800	0.263600	0.477400	0.113558
H42	H	0.897000	0.222700	0.616600	0.104533
H43	H	0.942700	0.345200	0.633200	0.106503
H44	H	0.953900	0.429600	0.568900	0.111382
H45	H	0.765500	0.749800	0.468600	0.114503
H46	H	0.460000	0.778800	0.524400	0.105005
H47	H	0.377500	0.661600	0.502000	0.106503
H48	H	0.487600	0.586900	0.460800	0.111382
H49	H	0.981400	0.779400	0.270800	0.113558
H50	H	0.888800	0.818300	0.136800	0.104533
H51	H	0.824800	0.692200	0.126300	0.106503
H52	H	0.832000	0.610100	0.186700	0.111382
H53	H	0.555000	0.595900	0.292000	0.127869
H54	H	0.646200	0.490100	0.271100	0.127869
H55	H	0.662400	0.329000	0.115500	0.125397
H56	H	0.559700	0.310900	0.038600	0.125397
H57	H	0.254700	0.451900	0.951300	0.127869
H58	H	0.162700	0.556700	0.970200	0.127869
H59	H	0.141600	0.718300	0.127300	0.125397
H60	H	0.245200	0.732400	0.204200	0.125397
H61	H	0.447800	0.528900	0.159800	0.297440
H62	H	0.344900	0.514000	0.084800	0.297440
H63	H	0.534700	0.292900	0.208800	0.114503
H64	H	0.821700	0.269400	0.283400	0.105005
H65	H	0.908200	0.384800	0.258600	0.106503
H66	H	0.809600	0.456800	0.212900	0.111382
H67	H	0.327800	0.263600	0.022600	0.113558
H68	H	0.397000	0.222700	0.883400	0.104533
H69	H	0.442700	0.345200	0.866800	0.106503
H70	H	0.453900	0.429600	0.931100	0.111382
H71	H	0.265500	0.749800	0.031400	0.114503
H72	H	0.960000	0.778800	0.975600	0.105005
H73	H	0.877500	0.661600	0.998000	0.106503
H74	H	0.987600	0.586900	0.039200	0.111382
H75	H	0.481400	0.779400	0.229200	0.113558
H76	H	0.388800	0.818300	0.363200	0.104533
H77	H	0.324800	0.692200	0.373700	0.106503
H78	H	0.332000	0.610100	0.313300	0.111382
H79	H	0.945000	0.404100	0.792000	0.127869
H80	H	0.853800	0.509900	0.771100	0.127869
H81	H	0.837600	0.671000	0.615500	0.125397
H82	H	0.940300	0.689100	0.538600	0.125397
H83	H	0.245300	0.548100	0.451300	0.127869
H84	H	0.337300	0.443300	0.470200	0.127869
H85	H	0.358400	0.281700	0.627300	0.125397
H86	H	0.254800	0.267600	0.704200	0.125397
H87	H	0.052200	0.471100	0.659800	0.297440
H88	H	0.155100	0.486000	0.584800	0.297440
H89	H	0.965300	0.707100	0.708800	0.114503
H90	H	0.678300	0.730600	0.783400	0.105005
H91	H	0.591800	0.615200	0.758600	0.106503
H92	H	0.690400	0.543200	0.712900	0.111382
H93	H	0.172200	0.736400	0.522600	0.113558
H94	H	0.103000	0.777300	0.383400	0.104533
H95	H	0.057300	0.654800	0.366800	0.106503
H96	H	0.046100	0.570400	0.431100	0.111382
H97	H	0.234500	0.250200	0.531400	0.114503
H98	H	0.540000	0.221200	0.475600	0.105005
H99	H	0.622500	0.338400	0.498000	0.106503
H100	H	0.512400	0.413100	0.539200	0.111382
H101	H	0.018600	0.220600	0.729200	0.113558
H102	H	0.111200	0.181700	0.863200	0.104533
H103	H	0.175200	0.307800	0.873700	0.106503
H104	H	0.168000	0.389900	0.813300	0.111382
C1	C	0.529600	0.417000	0.776000	0.191781
C2	C	0.456200	0.431100	0.737000	-0.131159
C3	C	0.405600	0.488900	0.748400	-0.131159
C4	C	0.444400	0.511900	0.794600	0.191781
C5	C	0.412200	0.571100	0.819300	-0.077362
C6	C	0.445800	0.592600	0.867000	0.249116
C7	C	0.397700	0.646600	0.894800	-0.136312
C8	C	0.451500	0.655900	0.936700	-0.136312
C9	C	0.533400	0.603300	0.936700	0.249116
C10	C	0.607400	0.594600	0.976200	-0.077362
C11	C	0.671500	0.538000	0.979200	0.191781
C12	C	0.738100	0.522100	0.019300	-0.131159
C13	C	0.789100	0.464800	0.008900	-0.131159
C14	C	0.758700	0.442000	0.961700	0.191781
C15	C	0.788600	0.385500	0.934400	-0.077362
C16	C	0.758500	0.366300	0.887300	0.249116
C17	C	0.802200	0.308800	0.861800	-0.136312
C18	C	0.747300	0.302100	0.820200	-0.136312
C19	C	0.674500	0.356400	0.818400	0.249116
C20	C	0.601300	0.365300	0.779100	-0.077362
C21	C	0.339900	0.616100	0.793500	0.086941
C22	C	0.389600	0.687600	0.780400	-0.078152
C23	C	0.329600	0.731500	0.751500	-0.085372
C24	C	0.219400	0.702800	0.736600	-0.016992
C25	C	0.168900	0.633700	0.750900	-0.088986
C26	C	0.227500	0.590900	0.778300	-0.113264
C27	C	0.383900	0.806300	0.737900	0.607554
C28	C	0.608500	0.645600	0.017800	0.084589
C29	C	0.646100	0.719900	0.008300	-0.061616
C30	C	0.643600	0.769300	0.046800	-0.121031
C31	C	0.606800	0.743200	0.091600	-0.008523
C32	C	0.576100	0.671100	0.101400	-0.091261
C33	C	0.572700	0.620900	0.063500	-0.113264
C34	C	0.681000	0.850400	0.037500	0.736556
C35	C	0.861200	0.340400	0.960400	0.086941
C36	C	0.813200	0.269100	0.975300	-0.078152
C37	C	0.880200	0.225700	0.000000	-0.085372
C38	C	0.994500	0.251500	0.008700	-0.016992
C39	C	0.043700	0.320500	0.995000	-0.088986
C40	C	0.977400	0.365400	0.970500	-0.113264
C41	C	0.822000	0.149400	0.014100	0.607554
C42	C	0.597800	0.313400	0.738200	0.084589
C43	C	0.554700	0.239300	0.741900	-0.061616
C44	C	0.563300	0.192500	0.704400	-0.121031
C45	C	0.606500	0.215000	0.662200	-0.008523
C46	C	0.645200	0.290400	0.656500	-0.091261
C47	C	0.641800	0.339300	0.692100	-0.113264
C48	C	0.522700	0.110700	0.713200	0.736556
C49	C	0.982000	0.010000	0.974700	0.537571
C50	C	0.516700	0.984800	0.974700	0.537571
C51	C	0.222600	0.943500	0.774000	0.537571
C52	C	0.188900	0.973800	0.723800	0.537571
C53	C	0.970400	0.583000	0.276000	0.191781
C54	C	0.043800	0.568900	0.237000	-0.131159
C55	C	0.094400	0.511100	0.248400	-0.131159
C56	C	0.055600	0.488100	0.294600	0.191781
C57	C	0.087800	0.428900	0.319300	-0.077362
C58	C	0.054200	0.407400	0.367000	0.249116
C59	C	0.102300	0.353400	0.394800	-0.136312
C60	C	0.048500	0.344100	0.436700	-0.136312
C61	C	0.966600	0.396700	0.436700	0.249116
C62	C	0.892600	0.405400	0.476200	-0.077362
C63	C	0.828500	0.462000	0.479200	0.191781
C64	C	0.761900	0.477900	0.519300	-0.131159
C65	C	0.710900	0.535200	0.508900	-0.131159
C66	C	0.741300	0.558000	0.461700	0.191781
C67	C	0.711400	0.614500	0.434400	-0.077362
C68	C	0.741500	0.633700	0.387300	0.249116
C69	C	0.697800	0.691200	0.361800	-0.136312
C70	C	0.752700	0.697900	0.320200	-0.136312
C71	C	0.825500	0.643600	0.318400	0.249116
C72	C	0.898700	0.634700	0.279100	-0.077362
C73	C	0.160100	0.383900	0.293500	0.086941
C74	C	0.110400	0.312400	0.280400	-0.078152
C75	C	0.170400	0.268500	0.251500	-0.085372
C76	C	0.280600	0.297200	0.236600	-0.016992
C77	C	0.331100	0.366300	0.250900	-0.088986
C78	C	0.272500	0.409100	0.278300	-0.113264
C79	C	0.116100	0.193700	0.237900	0.607554
C80	C	0.891500	0.354400	0.517800	0.084589
C81	C	0.853900	0.280100	0.508300	-0.061616
C82	C	0.856400	0.230700	0.546800	-0.121031
C83	C	0.893200	0.256800	0.591600	-0.008523
C84	C	0.923900	0.328900	0.601400	-0.091261
C85	C	0.927300	0.379100	0.563500	-0.113264
C86	C	0.819000	0.149600	0.537500	0.736556
C87	C	0.638800	0.659600	0.460400	0.086941
C88	C	0.686800	0.730900	0.475300	-0.078152
C89	C	0.619800	0.774300	0.500000	-0.085372
C90	C	0.505500	0.748500	0.508700	-0.016992
C91	C	0.456300	0.679500	0.495000	-0.088986
C92	C	0.522600	0.634600	0.470500	-0.113264
C93	C	0.678000	0.850600	0.514100	0.607554
C94	C	0.902200	0.686600	0.238200	0.084589
C95	C	0.945300	0.760700	0.241900	-0.061616
C96	C	0.936700	0.807500	0.204400	-0.121031
C97	C	0.893500	0.785000	0.162200	-0.008523
C98	C	0.854800	0.709600	0.156500	-0.091261
C99	C	0.858200	0.660700	0.192100	-0.113264
C100	C	0.977300	0.889300	0.213200	0.736556
C101	C	0.518000	0.990000	0.474700	0.537571
C102	C	0.983300	0.015200	0.474700	0.537571
C103	C	0.277400	0.056500	0.274000	0.537571
C104	C	0.311100	0.026200	0.223800	0.537571
C105	C	0.470400	0.583000	0.224000	0.191781
C106	C	0.543800	0.568900	0.263000	-0.131159
C107	C	0.594400	0.511100	0.251600	-0.131159
C108	C	0.555600	0.488100	0.205400	0.191781
C109	C	0.587800	0.428900	0.180700	-0.077362
C110	C	0.554200	0.407400	0.133000	0.249116
C111	C	0.602300	0.353400	0.105200	-0.136312
C112	C	0.548500	0.344100	0.063300	-0.136312
C113	C	0.466600	0.396700	0.063300	0.249116
C114	C	0.392600	0.405400	0.023800	-0.077362
C115	C	0.328500	0.462000	0.020800	0.191781
C116	C	0.261900	0.477900	0.980700	-0.131159
C117	C	0.210900	0.535200	0.991100	-0.131159
C118	C	0.241300	0.558000	0.038300	0.191781
C119	C	0.211400	0.614500	0.065600	-0.077362
C120	C	0.241500	0.633700	0.112700	0.249116
C121	C	0.197800	0.691200	0.138200	-0.136312
C122	C	0.252700	0.697900	0.179800	-0.136312
C123	C	0.325500	0.643600	0.181600	0.249116
C124	C	0.398700	0.634700	0.220900	-0.077362
C125	C	0.660100	0.383900	0.206500	0.086941
C126	C	0.610400	0.312400	0.219600	-0.078152
C127	C	0.670400	0.268500	0.248500	-0.085372
C128	C	0.780600	0.297200	0.263400	-0.016992
C129	C	0.831100	0.366300	0.249100	-0.088986
C130	C	0.772500	0.409100	0.221700	-0.113264
C131	C	0.616100	0.193700	0.262100	0.607554
C132	C	0.391500	0.354400	0.982200	0.084589
C133	C	0.353900	0.280100	0.991700	-0.061616
C134	C	0.356400	0.230700	0.953200	-0.121031
C135	C	0.393200	0.256800	0.908400	-0.008523
C136	C	0.423900	0.328900	0.898600	-0.091261
C137	C	0.427300	0.379100	0.936500	-0.113264
C138	C	0.319000	0.149600	0.962500	0.736556
C139	C	0.138800	0.659600	0.039600	0.086941
C140	C	0.186800	0.730900	0.024700	-0.078152
C141	C	0.119800	0.774300	0.000000	-0.085372
C142	C	0.005500	0.748500	0.991300	-0.016992
C143	C	0.956300	0.679500	0.005000	-0.088986
C144	C	0.022600	0.634600	0.029500	-0.113264
C145	C	0.178000	0.850600	0.985900	0.607554
C146	C	0.402200	0.686600	0.261800	0.084589
C147	C	0.445300	0.760700	0.258100	-0.061616
C148	C	0.436700	0.807500	0.295600	-0.121031
C149	C	0.393500	0.785000	0.337800	-0.008523
C150	C	0.354800	0.709600	0.343500	-0.091261
C151	C	0.358200	0.660700	0.307900	-0.113264
C152	C	0.477300	0.889300	0.286800	0.736556
C153	C	0.018000	0.990000	0.025300	0.537571
C154	C	0.483300	0.015200	0.025300	0.537571
C155	C	0.777400	0.056500	0.226000	0.537571
C156	C	0.811100	0.026200	0.276200	0.537571
C157	C	0.029600	0.417000	0.724000	0.191781
C158	C	0.956200	0.431100	0.763000	-0.131159
C159	C	0.905600	0.488900	0.751600	-0.131159
C160	C	0.944400	0.511900	0.705400	0.191781
C161	C	0.912200	0.571100	0.680700	-0.077362
C162	C	0.945800	0.592600	0.633000	0.249116
C163	C	0.897700	0.646600	0.605200	-0.136312
C164	C	0.951500	0.655900	0.563300	-0.136312
C165	C	0.033400	0.603300	0.563300	0.249116
C166	C	0.107400	0.594600	0.523800	-0.077362
C167	C	0.171500	0.538000	0.520800	0.191781
C168	C	0.238100	0.522100	0.480700	-0.131159
C169	C	0.289100	0.464800	0.491100	-0.131159
C170	C	0.258700	0.442000	0.538300	0.191781
C171	C	0.288600	0.385500	0.565600	-0.077362
C172	C	0.258500	0.366300	0.612700	0.249116
C173	C	0.302200	0.308800	0.638200	-0.136312
C174	C	0.247300	0.302100	0.679800	-0.136312
C175	C	0.174500	0.356400	0.681600	0.249116
C176	C	0.101300	0.365300	0.720900	-0.077362
C177	C	0.839900	0.616100	0.706500	0.086941
C178	C	0.889600	0.687600	0.719600	-0.078152
C179	C	0.829600	0.731500	0.748500	-0.085372
C180	C	0.719400	0.702800	0.763400	-0.016992
C181	C	0.668900	0.633700	0.749100	-0.088986
C182	C	0.727500	0.590900	0.721700	-0.113264
C183	C	0.883900	0.806300	0.762100	0.607554
C184	C	0.108500	0.645600	0.482200	0.084589
C185	C	0.146100	0.719900	0.491700	-0.061616
C186	C	0.143600	0.769300	0.453200	-0.121031
C187	C	0.106800	0.743200	0.408400	-0.008523
C188	C	0.076100	0.671100	0.398600	-0.091261
C189	C	0.072700	0.620900	0.436500	-0.113264
C190	C	0.181000	0.850400	0.462500	0.736556
C191	C	0.361200	0.340400	0.539600	0.086941
C192	C	0.313200	0.269100	0.524700	-0.078152
C193	C	0.380200	0.225700	0.500000	-0.085372
C194	C	0.494500	0.251500	0.491300	-0.016992
C195	C	0.543700	0.320500	0.505000	-0.088986
C196	C	0.477400	0.365400	0.529500	-0.113264
C197	C	0.322000	0.149400	0.485900	0.607554
C198	C	0.097800	0.313400	0.761800	0.084589
C199	C	0.054700	0.239300	0.758100	-0.061616
C200	C	0.063300	0.192500	0.795600	-0.121031
C201	C	0.106500	0.215000	0.837800	-0.008523
C202	C	0.145200	0.290400	0.843500	-0.091261
C203	C	0.141800	0.339300	0.807900	-0.113264
C204	C	0.022700	0.110700	0.786800	0.736556
C205	C	0.482000	0.010000	0.525300	0.537571
C206	C	0.016700	0.984800	0.525300	0.537571
C207	C	0.722600	0.943500	0.726000	0.537571
C208	C	0.688900	0.973800	0.776200	0.537571
N1	N	0.518500	0.467800	0.811900	-0.261600
N2	N	0.524800	0.566600	0.894000	-0.395711
N3	N	0.686100	0.488300	0.944000	-0.261600
N4	N	0.683900	0.396000	0.859400	-0.395711
N5	N	0.981500	0.532200	0.311900	-0.261600
N6	N	0.975200	0.433400	0.394000	-0.395711
N7	N	0.813900	0.511700	0.444000	-0.261600
N8	N	0.816100	0.604000	0.359400	-0.395711
N9	N	0.481500	0.532200	0.188100	-0.261600
N10	N	0.475200	0.433400	0.106000	-0.395711
N11	N	0.313900	0.511700	0.056000	-0.261600
N12	N	0.316100	0.604000	0.140600	-0.395711
N13	N	0.018500	0.467800	0.688100	-0.261600
N14	N	0.024800	0.566600	0.606000	-0.395711
N15	N	0.186100	0.488300	0.556000	-0.261600
N16	N	0.183900	0.396000	0.640600	-0.395711
O1	O	0.339000	0.837000	0.703100	-0.661872
O2	O	0.470900	0.838200	0.759600	-0.661872
O3	O	0.755700	0.872600	0.005200	-0.692673
O4	O	0.637700	0.892900	0.063600	-0.692673
O5	O	0.866600	0.118600	0.049200	-0.661872
O6	O	0.738700	0.117200	0.992000	-0.661872
O7	O	0.569900	0.068800	0.686400	-0.692673
O8	O	0.445800	0.086600	0.742800	-0.692673
O9	O	0.878700	0.013300	0.966700	-0.630680
O10	O	0.063300	0.021100	0.943700	-0.630680
O11	O	0.617700	0.975700	0.967700	-0.630680
O12	O	0.433100	0.968200	0.945400	-0.630680
O13	O	0.324400	0.939600	0.781300	-0.630680
O14	O	0.137700	0.927100	0.804100	-0.630680
O15	O	0.089800	0.982800	0.718100	-0.630680
O16	O	0.267700	0.981900	0.693800	-0.630680
O17	O	0.161000	0.163000	0.203100	-0.661872
O18	O	0.029100	0.161800	0.259600	-0.661872
O19	O	0.744300	0.127400	0.505200	-0.692673
O20	O	0.862300	0.107100	0.563600	-0.692673
O21	O	0.633400	0.881400	0.549200	-0.661872
O22	O	0.761300	0.882800	0.492000	-0.661872
O23	O	0.930100	0.931200	0.186400	-0.692673
O24	O	0.054200	0.913400	0.242800	-0.692673
O25	O	0.621300	0.986700	0.466700	-0.630680
O26	O	0.436700	0.978900	0.443700	-0.630680
O27	O	0.882300	0.024300	0.467700	-0.630680
O28	O	0.066900	0.031800	0.445400	-0.630680
O29	O	0.175600	0.060400	0.281300	-0.630680
O30	O	0.362300	0.072900	0.304100	-0.630680
O31	O	0.410200	0.017200	0.218100	-0.630680
O32	O	0.232300	0.018100	0.193800	-0.630680
O33	O	0.661000	0.163000	0.296900	-0.661872
O34	O	0.529100	0.161800	0.240400	-0.661872
O35	O	0.244300	0.127400	0.994800	-0.692673
O36	O	0.362300	0.107100	0.936400	-0.692673
O37	O	0.133400	0.881400	0.950800	-0.661872
O38	O	0.261300	0.882800	0.008000	-0.661872
O39	O	0.430100	0.931200	0.313600	-0.692673
O40	O	0.554200	0.913400	0.257200	-0.692673
O41	O	0.121300	0.986700	0.033300	-0.630680
O42	O	0.936700	0.978900	0.056300	-0.630680
O43	O	0.382300	0.024300	0.032300	-0.630680
O44	O	0.566900	0.031800	0.054600	-0.630680
O45	O	0.675600	0.060400	0.218700	-0.630680
O46	O	0.862300	0.072900	0.195900	-0.630680
O47	O	0.910200	0.017200	0.281900	-0.630680
O48	O	0.732300	0.018100	0.306200	-0.630680
O49	O	0.839000	0.837000	0.796900	-0.661872
O50	O	0.970900	0.838200	0.740400	-0.661872
O51	O	0.255700	0.872600	0.494800	-0.692673
O52	O	0.137700	0.892900	0.436400	-0.692673
O53	O	0.366600	0.118600	0.450800	-0.661872
O54	O	0.238700	0.117200	0.508000	-0.661872
O55	O	0.069900	0.068800	0.813600	-0.692673
O56	O	0.945800	0.086600	0.757200	-0.692673
O57	O	0.378700	0.013300	0.533300	-0.630680
O58	O	0.563300	0.021100	0.556300	-0.630680
O59	O	0.117700	0.975700	0.532300	-0.630680
O60	O	0.933100	0.968200	0.554600	-0.630680
O61	O	0.824400	0.939600	0.718700	-0.630680
O62	O	0.637700	0.927100	0.695900	-0.630680
O63	O	0.589800	0.982800	0.781900	-0.630680
O64	O	0.767700	0.981900	0.806200	-0.630680
