data_MOYNEU_clean_PM
_symmetry_space_group_name_H-M	'P1'
_cell_length_a	11.675000
_cell_length_b	16.429000
_cell_length_c	20.934000
_cell_angle_alpha	90.000000
_cell_angle_beta	90.000000
_cell_angle_gamma	90.000000
_symmetry_Int_Tables_number 1

loop_
_symmetry_equiv_pos_as_xyz
'x,y,z'

loop_
_atom_site_label
_atom_site_type_symbol
_atom_site_fract_x
_atom_site_fract_y
_atom_site_fract_z
_atom_site_charge
Zn1	Zn	0.500000	0.750000	0.326950	0.990705
Zn2	Zn	0.000000	0.750000	0.173050	0.990705
Zn3	Zn	0.500000	0.250000	0.673050	0.990705
Zn4	Zn	0.000000	0.250000	0.826950	0.990705
Zn5	Zn	0.750000	0.769690	0.250000	1.111108
Zn6	Zn	0.250000	0.730310	0.250000	1.111108
Zn7	Zn	0.250000	0.230310	0.750000	1.111108
Zn8	Zn	0.750000	0.269690	0.750000	1.111108
H1	H	0.627400	0.894100	0.479100	0.103184
H2	H	0.925200	0.798400	0.419600	0.097767
H3	H	0.025000	0.855900	0.506700	0.102453
H4	H	0.094400	0.946800	0.603500	0.102453
H5	H	0.117400	0.042900	0.685700	0.098445
H6	H	0.779500	0.094800	0.684400	0.103605
H7	H	0.587000	0.039100	0.525700	0.086351
H8	H	0.617500	0.095000	0.583900	0.086351
H9	H	0.768200	0.076800	0.480200	0.064214
H10	H	0.777600	0.142800	0.534300	0.064214
H11	H	0.695800	0.203700	0.440300	0.105146
H12	H	0.605600	0.206800	0.495700	0.105146
H13	H	0.595100	0.140700	0.442100	0.105146
H14	H	0.601900	0.987800	0.657400	0.086351
H15	H	0.564100	0.930100	0.601700	0.086351
H16	H	0.745400	0.893000	0.684400	0.064214
H17	H	0.694700	0.833900	0.632300	0.064214
H18	H	0.604900	0.804600	0.736400	0.105146
H19	H	0.510600	0.832900	0.687900	0.105146
H20	H	0.558300	0.894000	0.738900	0.105146
H21	H	0.372600	0.605900	0.479100	0.103184
H22	H	0.074800	0.701600	0.419600	0.097767
H23	H	0.975000	0.644100	0.506700	0.102453
H24	H	0.905600	0.553200	0.603500	0.102453
H25	H	0.882600	0.457100	0.685700	0.098445
H26	H	0.220500	0.405200	0.684400	0.103605
H27	H	0.413000	0.460900	0.525700	0.086351
H28	H	0.382500	0.405000	0.583900	0.086351
H29	H	0.231800	0.423200	0.480200	0.064214
H30	H	0.222400	0.357200	0.534300	0.064214
H31	H	0.304200	0.296300	0.440300	0.105146
H32	H	0.394400	0.293200	0.495700	0.105146
H33	H	0.404900	0.359300	0.442100	0.105146
H34	H	0.398100	0.512200	0.657400	0.086351
H35	H	0.435900	0.569900	0.601700	0.086351
H36	H	0.254600	0.607000	0.684400	0.064214
H37	H	0.305300	0.666100	0.632300	0.064214
H38	H	0.395100	0.695400	0.736400	0.105146
H39	H	0.489400	0.667100	0.687900	0.105146
H40	H	0.441700	0.606000	0.738900	0.105146
H41	H	0.127400	0.605900	0.020900	0.103184
H42	H	0.425200	0.701600	0.080400	0.097767
H43	H	0.525000	0.644100	0.993300	0.102453
H44	H	0.594400	0.553200	0.896500	0.102453
H45	H	0.617400	0.457100	0.814300	0.098445
H46	H	0.279500	0.405200	0.815600	0.103605
H47	H	0.087000	0.460900	0.974300	0.086351
H48	H	0.117500	0.405000	0.916100	0.086351
H49	H	0.268200	0.423200	0.019800	0.064214
H50	H	0.277600	0.357200	0.965700	0.064214
H51	H	0.195800	0.296300	0.059700	0.105146
H52	H	0.105600	0.293200	0.004300	0.105146
H53	H	0.095100	0.359300	0.057900	0.105146
H54	H	0.101900	0.512200	0.842600	0.086351
H55	H	0.064100	0.569900	0.898300	0.086351
H56	H	0.245400	0.607000	0.815600	0.064214
H57	H	0.194700	0.666100	0.867700	0.064214
H58	H	0.104900	0.695400	0.763600	0.105146
H59	H	0.010600	0.667100	0.812100	0.105146
H60	H	0.058300	0.606000	0.761100	0.105146
H61	H	0.872600	0.894100	0.020900	0.103184
H62	H	0.574800	0.798400	0.080400	0.097767
H63	H	0.475000	0.855900	0.993300	0.102453
H64	H	0.405600	0.946800	0.896500	0.102453
H65	H	0.382600	0.042900	0.814300	0.098445
H66	H	0.720500	0.094800	0.815600	0.103605
H67	H	0.913000	0.039100	0.974300	0.086351
H68	H	0.882500	0.095000	0.916100	0.086351
H69	H	0.731800	0.076800	0.019800	0.064214
H70	H	0.722400	0.142800	0.965700	0.064214
H71	H	0.804200	0.203700	0.059700	0.105146
H72	H	0.894400	0.206800	0.004300	0.105146
H73	H	0.904900	0.140700	0.057900	0.105146
H74	H	0.898100	0.987800	0.842600	0.086351
H75	H	0.935900	0.930100	0.898300	0.086351
H76	H	0.754600	0.893000	0.815600	0.064214
H77	H	0.805300	0.833900	0.867700	0.064214
H78	H	0.895100	0.804600	0.763600	0.105146
H79	H	0.989400	0.832900	0.812100	0.105146
H80	H	0.941700	0.894000	0.761100	0.105146
H81	H	0.372600	0.105900	0.520900	0.103184
H82	H	0.074800	0.201600	0.580400	0.097767
H83	H	0.975000	0.144100	0.493300	0.102453
H84	H	0.905600	0.053200	0.396500	0.102453
H85	H	0.882600	0.957100	0.314300	0.098445
H86	H	0.220500	0.905200	0.315600	0.103605
H87	H	0.413000	0.960900	0.474300	0.086351
H88	H	0.382500	0.905000	0.416100	0.086351
H89	H	0.231800	0.923200	0.519800	0.064214
H90	H	0.222400	0.857200	0.465700	0.064214
H91	H	0.304200	0.796300	0.559700	0.105146
H92	H	0.394400	0.793200	0.504300	0.105146
H93	H	0.404900	0.859300	0.557900	0.105146
H94	H	0.398100	0.012200	0.342600	0.086351
H95	H	0.435900	0.069900	0.398300	0.086351
H96	H	0.254600	0.107000	0.315600	0.064214
H97	H	0.305300	0.166100	0.367700	0.064214
H98	H	0.395100	0.195400	0.263600	0.105146
H99	H	0.489400	0.167100	0.312100	0.105146
H100	H	0.441700	0.106000	0.261100	0.105146
H101	H	0.627400	0.394100	0.520900	0.103184
H102	H	0.925200	0.298400	0.580400	0.097767
H103	H	0.025000	0.355900	0.493300	0.102453
H104	H	0.094400	0.446800	0.396500	0.102453
H105	H	0.117400	0.542900	0.314300	0.098445
H106	H	0.779500	0.594800	0.315600	0.103605
H107	H	0.587000	0.539100	0.474300	0.086351
H108	H	0.617500	0.595000	0.416100	0.086351
H109	H	0.768200	0.576800	0.519800	0.064214
H110	H	0.777600	0.642800	0.465700	0.064214
H111	H	0.695800	0.703700	0.559700	0.105146
H112	H	0.605600	0.706800	0.504300	0.105146
H113	H	0.595100	0.640700	0.557900	0.105146
H114	H	0.601900	0.487800	0.342600	0.086351
H115	H	0.564100	0.430100	0.398300	0.086351
H116	H	0.745400	0.393000	0.315600	0.064214
H117	H	0.694700	0.333900	0.367700	0.064214
H118	H	0.604900	0.304600	0.263600	0.105146
H119	H	0.510600	0.332900	0.312100	0.105146
H120	H	0.558300	0.394000	0.261100	0.105146
H121	H	0.872600	0.394100	0.979100	0.103184
H122	H	0.574800	0.298400	0.919600	0.097767
H123	H	0.475000	0.355900	0.006700	0.102453
H124	H	0.405600	0.446800	0.103500	0.102453
H125	H	0.382600	0.542900	0.185700	0.098445
H126	H	0.720500	0.594800	0.184400	0.103605
H127	H	0.913000	0.539100	0.025700	0.086351
H128	H	0.882500	0.595000	0.083900	0.086351
H129	H	0.731800	0.576800	0.980200	0.064214
H130	H	0.722400	0.642800	0.034300	0.064214
H131	H	0.804200	0.703700	0.940300	0.105146
H132	H	0.894400	0.706800	0.995700	0.105146
H133	H	0.904900	0.640700	0.942100	0.105146
H134	H	0.898100	0.487800	0.157400	0.086351
H135	H	0.935900	0.430100	0.101700	0.086351
H136	H	0.754600	0.393000	0.184400	0.064214
H137	H	0.805300	0.333900	0.132300	0.064214
H138	H	0.895100	0.304600	0.236400	0.105146
H139	H	0.989400	0.332900	0.187900	0.105146
H140	H	0.941700	0.394000	0.238900	0.105146
H141	H	0.127400	0.105900	0.979100	0.103184
H142	H	0.425200	0.201600	0.919600	0.097767
H143	H	0.525000	0.144100	0.006700	0.102453
H144	H	0.594400	0.053200	0.103500	0.102453
H145	H	0.617400	0.957100	0.185700	0.098445
H146	H	0.279500	0.905200	0.184400	0.103605
H147	H	0.087000	0.960900	0.025700	0.086351
H148	H	0.117500	0.905000	0.083900	0.086351
H149	H	0.268200	0.923200	0.980200	0.064214
H150	H	0.277600	0.857200	0.034300	0.064214
H151	H	0.195800	0.796300	0.940300	0.105146
H152	H	0.105600	0.793200	0.995700	0.105146
H153	H	0.095100	0.859300	0.942100	0.105146
H154	H	0.101900	0.012200	0.157400	0.086351
H155	H	0.064100	0.069900	0.101700	0.086351
H156	H	0.245400	0.107000	0.184400	0.064214
H157	H	0.194700	0.166100	0.132300	0.064214
H158	H	0.104900	0.195400	0.236400	0.105146
H159	H	0.010600	0.167100	0.187900	0.105146
H160	H	0.058300	0.106000	0.238900	0.105146
C1	C	0.706300	0.889300	0.483800	-0.077436
C2	C	0.770400	0.842000	0.441800	-0.123789
C3	C	0.886200	0.830300	0.449100	-0.034320
C4	C	0.947300	0.865300	0.500100	-0.144014
C5	C	0.032900	0.976800	0.619200	-0.140153
C6	C	0.045300	0.034300	0.668100	-0.038022
C7	C	0.951200	0.079600	0.691400	-0.141525
C8	C	0.841900	0.067000	0.667400	-0.081340
C9	C	0.716700	0.988600	0.582500	0.063620
C10	C	0.763400	0.929200	0.533000	-0.003800
C11	C	0.881400	0.915700	0.540600	0.019317
C12	C	0.919800	0.967300	0.595300	0.019317
C13	C	0.827300	0.011300	0.616800	-0.000014
C14	C	0.713800	0.801300	0.387100	0.666024
C15	C	0.971900	0.142100	0.747300	0.688908
C16	C	0.649800	0.060900	0.550700	-0.187431
C17	C	0.724300	0.111700	0.508500	-0.045544
C18	C	0.647700	0.171600	0.467600	-0.308323
C19	C	0.629200	0.947900	0.626800	-0.187431
C20	C	0.676300	0.877700	0.661600	-0.045544
C21	C	0.577400	0.849400	0.711300	-0.308323
C22	C	0.293700	0.610700	0.483800	-0.077436
C23	C	0.229600	0.658000	0.441800	-0.123789
C24	C	0.113800	0.669700	0.449100	-0.034320
C25	C	0.052700	0.634700	0.500100	-0.144014
C26	C	0.967100	0.523200	0.619200	-0.140153
C27	C	0.954700	0.465700	0.668100	-0.038022
C28	C	0.048800	0.420400	0.691400	-0.141525
C29	C	0.158100	0.433000	0.667400	-0.081340
C30	C	0.283300	0.511400	0.582500	0.063620
C31	C	0.236600	0.570800	0.533000	-0.003800
C32	C	0.118600	0.584300	0.540600	0.019317
C33	C	0.080200	0.532700	0.595300	0.019317
C34	C	0.172700	0.488700	0.616800	-0.000014
C35	C	0.286200	0.698700	0.387100	0.666024
C36	C	0.028100	0.357900	0.747300	0.688908
C37	C	0.350200	0.439100	0.550700	-0.187431
C38	C	0.275700	0.388300	0.508500	-0.045544
C39	C	0.352300	0.328400	0.467600	-0.308323
C40	C	0.370800	0.552100	0.626800	-0.187431
C41	C	0.323700	0.622300	0.661600	-0.045544
C42	C	0.422600	0.650600	0.711300	-0.308323
C43	C	0.206300	0.610700	0.016200	-0.077436
C44	C	0.270400	0.658000	0.058200	-0.123789
C45	C	0.386200	0.669700	0.050900	-0.034320
C46	C	0.447300	0.634700	0.999900	-0.144014
C47	C	0.532900	0.523200	0.880800	-0.140153
C48	C	0.545300	0.465700	0.831900	-0.038022
C49	C	0.451200	0.420400	0.808600	-0.141525
C50	C	0.341900	0.433000	0.832600	-0.081340
C51	C	0.216700	0.511400	0.917500	0.063620
C52	C	0.263400	0.570800	0.967000	-0.003800
C53	C	0.381400	0.584300	0.959400	0.019317
C54	C	0.419800	0.532700	0.904700	0.019317
C55	C	0.327300	0.488700	0.883200	-0.000014
C56	C	0.213800	0.698700	0.112900	0.666024
C57	C	0.471900	0.357900	0.752700	0.688908
C58	C	0.149800	0.439100	0.949300	-0.187431
C59	C	0.224300	0.388300	0.991500	-0.045544
C60	C	0.147700	0.328400	0.032400	-0.308323
C61	C	0.129200	0.552100	0.873200	-0.187431
C62	C	0.176300	0.622300	0.838400	-0.045544
C63	C	0.077400	0.650600	0.788700	-0.308323
C64	C	0.793700	0.889300	0.016200	-0.077436
C65	C	0.729600	0.842000	0.058200	-0.123789
C66	C	0.613800	0.830300	0.050900	-0.034320
C67	C	0.552700	0.865300	0.999900	-0.144014
C68	C	0.467100	0.976800	0.880800	-0.140153
C69	C	0.454700	0.034300	0.831900	-0.038022
C70	C	0.548800	0.079600	0.808600	-0.141525
C71	C	0.658100	0.067000	0.832600	-0.081340
C72	C	0.783300	0.988600	0.917500	0.063620
C73	C	0.736600	0.929200	0.967000	-0.003800
C74	C	0.618600	0.915700	0.959400	0.019317
C75	C	0.580200	0.967300	0.904700	0.019317
C76	C	0.672700	0.011300	0.883200	-0.000014
C77	C	0.786200	0.801300	0.112900	0.666024
C78	C	0.528100	0.142100	0.752700	0.688908
C79	C	0.850200	0.060900	0.949300	-0.187431
C80	C	0.775700	0.111700	0.991500	-0.045544
C81	C	0.852300	0.171600	0.032400	-0.308323
C82	C	0.870800	0.947900	0.873200	-0.187431
C83	C	0.823700	0.877700	0.838400	-0.045544
C84	C	0.922600	0.849400	0.788700	-0.308323
C85	C	0.293700	0.110700	0.516200	-0.077436
C86	C	0.229600	0.158000	0.558200	-0.123789
C87	C	0.113800	0.169700	0.550900	-0.034320
C88	C	0.052700	0.134700	0.499900	-0.144014
C89	C	0.967100	0.023200	0.380800	-0.140153
C90	C	0.954700	0.965700	0.331900	-0.038022
C91	C	0.048800	0.920400	0.308600	-0.141525
C92	C	0.158100	0.933000	0.332600	-0.081340
C93	C	0.283300	0.011400	0.417500	0.063620
C94	C	0.236600	0.070800	0.467000	-0.003800
C95	C	0.118600	0.084300	0.459400	0.019317
C96	C	0.080200	0.032700	0.404700	0.019317
C97	C	0.172700	0.988700	0.383200	-0.000014
C98	C	0.286200	0.198700	0.612900	0.666024
C99	C	0.028100	0.857900	0.252700	0.688908
C100	C	0.350200	0.939100	0.449300	-0.187431
C101	C	0.275700	0.888300	0.491500	-0.045544
C102	C	0.352300	0.828400	0.532400	-0.308323
C103	C	0.370800	0.052100	0.373200	-0.187431
C104	C	0.323700	0.122300	0.338400	-0.045544
C105	C	0.422600	0.150600	0.288700	-0.308323
C106	C	0.706300	0.389300	0.516200	-0.077436
C107	C	0.770400	0.342000	0.558200	-0.123789
C108	C	0.886200	0.330300	0.550900	-0.034320
C109	C	0.947300	0.365300	0.499900	-0.144014
C110	C	0.032900	0.476800	0.380800	-0.140153
C111	C	0.045300	0.534300	0.331900	-0.038022
C112	C	0.951200	0.579600	0.308600	-0.141525
C113	C	0.841900	0.567000	0.332600	-0.081340
C114	C	0.716700	0.488600	0.417500	0.063620
C115	C	0.763400	0.429200	0.467000	-0.003800
C116	C	0.881400	0.415700	0.459400	0.019317
C117	C	0.919800	0.467300	0.404700	0.019317
C118	C	0.827300	0.511300	0.383200	-0.000014
C119	C	0.713800	0.301300	0.612900	0.666024
C120	C	0.971900	0.642100	0.252700	0.688908
C121	C	0.649800	0.560900	0.449300	-0.187431
C122	C	0.724300	0.611700	0.491500	-0.045544
C123	C	0.647700	0.671600	0.532400	-0.308323
C124	C	0.629200	0.447900	0.373200	-0.187431
C125	C	0.676300	0.377700	0.338400	-0.045544
C126	C	0.577400	0.349400	0.288700	-0.308323
C127	C	0.793700	0.389300	0.983800	-0.077436
C128	C	0.729600	0.342000	0.941800	-0.123789
C129	C	0.613800	0.330300	0.949100	-0.034320
C130	C	0.552700	0.365300	0.000100	-0.144014
C131	C	0.467100	0.476800	0.119200	-0.140153
C132	C	0.454700	0.534300	0.168100	-0.038022
C133	C	0.548800	0.579600	0.191400	-0.141525
C134	C	0.658100	0.567000	0.167400	-0.081340
C135	C	0.783300	0.488600	0.082500	0.063620
C136	C	0.736600	0.429200	0.033000	-0.003800
C137	C	0.618600	0.415700	0.040600	0.019317
C138	C	0.580200	0.467300	0.095300	0.019317
C139	C	0.672700	0.511300	0.116800	-0.000014
C140	C	0.786200	0.301300	0.887100	0.666024
C141	C	0.528100	0.642100	0.247300	0.688908
C142	C	0.850200	0.560900	0.050700	-0.187431
C143	C	0.775700	0.611700	0.008500	-0.045544
C144	C	0.852300	0.671600	0.967600	-0.308323
C145	C	0.870800	0.447900	0.126800	-0.187431
C146	C	0.823700	0.377700	0.161600	-0.045544
C147	C	0.922600	0.349400	0.211300	-0.308323
C148	C	0.206300	0.110700	0.983800	-0.077436
C149	C	0.270400	0.158000	0.941800	-0.123789
C150	C	0.386200	0.169700	0.949100	-0.034320
C151	C	0.447300	0.134700	0.000100	-0.144014
C152	C	0.532900	0.023200	0.119200	-0.140153
C153	C	0.545300	0.965700	0.168100	-0.038022
C154	C	0.451200	0.920400	0.191400	-0.141525
C155	C	0.341900	0.933000	0.167400	-0.081340
C156	C	0.216700	0.011400	0.082500	0.063620
C157	C	0.263400	0.070800	0.033000	-0.003800
C158	C	0.381400	0.084300	0.040600	0.019317
C159	C	0.419800	0.032700	0.095300	0.019317
C160	C	0.327300	0.988700	0.116800	-0.000014
C161	C	0.213800	0.198700	0.887100	0.666024
C162	C	0.471900	0.857900	0.247300	0.688908
C163	C	0.149800	0.939100	0.050700	-0.187431
C164	C	0.224300	0.888300	0.008500	-0.045544
C165	C	0.147700	0.828400	0.967600	-0.308323
C166	C	0.129200	0.052100	0.126800	-0.187431
C167	C	0.176300	0.122300	0.161600	-0.045544
C168	C	0.077400	0.150600	0.211300	-0.308323
O1	O	0.606800	0.794700	0.390600	-0.606101
O2	O	0.774300	0.776000	0.341600	-0.604126
O3	O	0.890700	0.176600	0.766800	-0.635948
O4	O	0.079500	0.150800	0.757900	-0.635948
O5	O	0.393200	0.705300	0.390600	-0.606101
O6	O	0.225700	0.724000	0.341600	-0.604126
O7	O	0.109300	0.323400	0.766800	-0.635948
O8	O	0.920500	0.349200	0.757900	-0.635948
O9	O	0.106800	0.705300	0.109400	-0.606101
O10	O	0.274300	0.724000	0.158400	-0.604126
O11	O	0.390700	0.323400	0.733200	-0.635948
O12	O	0.579500	0.349200	0.742100	-0.635948
O13	O	0.893200	0.794700	0.109400	-0.606101
O14	O	0.725700	0.776000	0.158400	-0.604126
O15	O	0.609300	0.176600	0.733200	-0.635948
O16	O	0.420500	0.150800	0.742100	-0.635948
O17	O	0.393200	0.205300	0.609400	-0.606101
O18	O	0.225700	0.224000	0.658400	-0.604126
O19	O	0.109300	0.823400	0.233200	-0.635948
O20	O	0.920500	0.849200	0.242100	-0.635948
O21	O	0.606800	0.294700	0.609400	-0.606101
O22	O	0.774300	0.276000	0.658400	-0.604126
O23	O	0.890700	0.676600	0.233200	-0.635948
O24	O	0.079500	0.650800	0.242100	-0.635948
O25	O	0.893200	0.294700	0.890600	-0.606101
O26	O	0.725700	0.276000	0.841600	-0.604126
O27	O	0.609300	0.676600	0.266800	-0.635948
O28	O	0.420500	0.650800	0.257900	-0.635948
O29	O	0.106800	0.205300	0.890600	-0.606101
O30	O	0.274300	0.224000	0.841600	-0.604126
O31	O	0.390700	0.823400	0.266800	-0.635948
O32	O	0.579500	0.849200	0.257900	-0.635948
