data_NERVEL_clean_PM
_symmetry_space_group_name_H-M	'P1'
_cell_length_a	10.540700
_cell_length_b	11.826600
_cell_length_c	14.112200
_cell_angle_alpha	106.877999
_cell_angle_beta	102.410999
_cell_angle_gamma	111.011001
_symmetry_Int_Tables_number 1

loop_
_symmetry_equiv_pos_as_xyz
'x,y,z'

loop_
_atom_site_label
_atom_site_type_symbol
_atom_site_fract_x
_atom_site_fract_y
_atom_site_fract_z
_atom_site_charge
Co1	Co	0.806700	0.508590	0.787330	0.938253
Co2	Co	0.548800	0.769180	0.309930	0.938253
Co3	Co	0.193300	0.491410	0.212670	0.938253
Co4	Co	0.451200	0.230820	0.690070	0.938253
H1	H	0.878000	0.822100	0.385700	0.079879
H2	H	0.054600	0.806200	0.319500	0.127602
H3	H	0.002500	0.729300	0.137700	0.095812
H4	H	0.593400	0.667300	0.100800	0.077891
H5	H	0.732600	0.994000	0.250100	0.079879
H6	H	0.846400	0.220400	0.313100	0.127602
H7	H	0.833500	0.346300	0.466800	0.095812
H8	H	0.615400	0.012000	0.494700	0.077891
H9	H	0.976200	0.810000	0.864200	0.079879
H10	H	0.001000	0.977600	0.807500	0.127602
H11	H	0.860200	0.927900	0.636500	0.095812
H12	H	0.693400	0.546300	0.586900	0.077891
H13	H	0.074500	0.542300	0.709000	0.079879
H14	H	0.317600	0.605400	0.777700	0.127602
H15	H	0.432700	0.679800	0.959900	0.095812
H16	H	0.045400	0.604000	0.987900	0.077891
H17	H	0.581400	0.481400	0.788400	0.411455
H18	H	0.526500	0.448300	0.690000	0.411455
H19	H	0.122000	0.177900	0.614300	0.079879
H20	H	0.945400	0.193800	0.680500	0.127602
H21	H	0.997500	0.270700	0.862300	0.095812
H22	H	0.406600	0.332700	0.899200	0.077891
H23	H	0.267400	0.006000	0.749900	0.079879
H24	H	0.153600	0.779600	0.686900	0.127602
H25	H	0.166500	0.653700	0.533200	0.095812
H26	H	0.384600	0.988000	0.505300	0.077891
H27	H	0.023800	0.190000	0.135800	0.079879
H28	H	0.999000	0.022400	0.192500	0.127602
H29	H	0.139800	0.072100	0.363500	0.095812
H30	H	0.306600	0.453700	0.413100	0.077891
H31	H	0.925500	0.457700	0.291000	0.079879
H32	H	0.682400	0.394600	0.222300	0.127602
H33	H	0.567300	0.320200	0.040100	0.095812
H34	H	0.954600	0.396000	0.012100	0.077891
H35	H	0.418600	0.518600	0.211600	0.411455
H36	H	0.473500	0.551700	0.310000	0.411455
C1	C	0.854600	0.787400	0.312600	0.171041
C2	C	0.962000	0.779700	0.273400	-0.181965
C3	C	0.930800	0.732600	0.165500	0.045777
C4	C	0.790600	0.690400	0.099400	-0.202585
C5	C	0.688400	0.698100	0.145400	0.187261
C6	C	0.742100	0.633800	0.980100	0.651504
C7	C	0.731000	0.043700	0.314000	0.171041
C8	C	0.797300	0.179600	0.350500	-0.181965
C9	C	0.790700	0.254500	0.442100	0.044782
C10	C	0.719500	0.191500	0.496800	-0.209794
C11	C	0.660600	0.054900	0.456700	0.186493
C12	C	0.698900	0.265800	0.594100	0.678896
C13	C	0.921600	0.789100	0.794900	0.171041
C14	C	0.936200	0.890500	0.761700	-0.181965
C15	C	0.853800	0.861000	0.660000	0.045777
C16	C	0.761400	0.730100	0.593500	-0.202585
C17	C	0.754800	0.634400	0.632100	0.187261
C18	C	0.666400	0.690400	0.480900	0.651504
C19	C	0.118600	0.569700	0.781600	0.171041
C20	C	0.264500	0.608000	0.822400	-0.181965
C21	C	0.333000	0.650900	0.930800	0.044782
C22	C	0.249500	0.649500	0.994300	-0.209794
C23	C	0.102200	0.607100	0.945700	0.186493
C24	C	0.306500	0.681800	0.110900	0.678896
C25	C	0.145400	0.212600	0.687400	0.171041
C26	C	0.038000	0.220300	0.726600	-0.181965
C27	C	0.069200	0.267400	0.834500	0.045777
C28	C	0.209400	0.309600	0.900600	-0.202585
C29	C	0.311600	0.301900	0.854600	0.187261
C30	C	0.257900	0.366200	0.019900	0.651504
C31	C	0.269000	0.956300	0.686000	0.171041
C32	C	0.202700	0.820400	0.649500	-0.181965
C33	C	0.209300	0.745500	0.557900	0.044782
C34	C	0.280500	0.808500	0.503200	-0.209794
C35	C	0.339400	0.945100	0.543300	0.186493
C36	C	0.301100	0.734200	0.405900	0.678896
C37	C	0.078400	0.210900	0.205100	0.171041
C38	C	0.063800	0.109500	0.238300	-0.181965
C39	C	0.146200	0.139000	0.340000	0.045777
C40	C	0.238600	0.269900	0.406500	-0.202585
C41	C	0.245200	0.365600	0.367900	0.187261
C42	C	0.333600	0.309600	0.519100	0.651504
C43	C	0.881400	0.430300	0.218400	0.171041
C44	C	0.735500	0.392000	0.177600	-0.181965
C45	C	0.667000	0.349100	0.069200	0.044782
C46	C	0.750500	0.350500	0.005700	-0.209794
C47	C	0.897800	0.392900	0.054300	0.186493
C48	C	0.693500	0.318200	0.889100	0.678896
N1	N	0.718600	0.747100	0.250070	-0.338893
N2	N	0.664800	0.981200	0.366870	-0.338893
N3	N	0.832500	0.662400	0.731700	-0.338893
N4	N	0.036600	0.570300	0.842500	-0.338893
N5	N	0.281400	0.252900	0.749930	-0.338893
N6	N	0.335200	0.018800	0.633130	-0.338893
N7	N	0.167500	0.337600	0.268300	-0.338893
N8	N	0.963400	0.429700	0.157500	-0.338893
O1	O	0.837000	0.635300	0.939740	-0.597654
O2	O	0.609600	0.586700	0.929870	-0.601848
O3	O	0.782700	0.387600	0.640730	-0.580581
O4	O	0.600200	0.200100	0.619580	-0.580581
O5	O	0.666500	0.783100	0.454850	-0.597654
O6	O	0.596000	0.570200	0.423500	-0.601848
O7	O	0.214800	0.634900	0.149620	-0.580581
O8	O	0.441400	0.751600	0.160330	-0.580581
O9	O	0.574000	0.441400	0.742520	-0.868225
O10	O	0.163000	0.364700	0.060260	-0.597654
O11	O	0.390400	0.413300	0.070130	-0.601848
O12	O	0.217300	0.612400	0.359270	-0.580581
O13	O	0.399800	0.799900	0.380420	-0.580581
O14	O	0.333500	0.216900	0.545150	-0.597654
O15	O	0.404000	0.429800	0.576500	-0.601848
O16	O	0.785200	0.365100	0.850380	-0.580581
O17	O	0.558600	0.248400	0.839670	-0.580581
O18	O	0.426000	0.558600	0.257480	-0.868225
