data_NOHFOG_clean_PM
_symmetry_space_group_name_H-M	'P1'
_cell_length_a	9.844200
_cell_length_b	10.879500
_cell_length_c	29.228800
_cell_angle_alpha	90.000000
_cell_angle_beta	90.000000
_cell_angle_gamma	92.177000
_symmetry_Int_Tables_number 1

loop_
_symmetry_equiv_pos_as_xyz
'x,y,z'

loop_
_atom_site_label
_atom_site_type_symbol
_atom_site_fract_x
_atom_site_fract_y
_atom_site_fract_z
_atom_site_charge
Er1	Er	0.545170	0.041560	0.918510	1.540294
Er2	Er	0.540260	0.263420	0.748460	1.575284
Er3	Er	0.454830	0.458440	0.418510	1.540294
Er4	Er	0.459740	0.236580	0.248460	1.575284
Er5	Er	0.454830	0.958440	0.081490	1.540294
Er6	Er	0.459740	0.736580	0.251540	1.575284
Er7	Er	0.545170	0.541560	0.581490	1.540294
Er8	Er	0.540260	0.763420	0.751540	1.575284
H1	H	0.865900	0.893200	0.713200	0.114870
H2	H	0.094000	0.845100	0.709300	0.114870
H3	H	0.220000	0.162600	0.893000	0.114870
H4	H	0.986700	0.164500	0.907600	0.115220
H5	H	0.943100	0.689400	0.982600	0.114870
H6	H	0.175200	0.735400	0.987200	0.114870
H7	H	0.134100	0.606800	0.213200	0.114870
H8	H	0.906000	0.654900	0.209300	0.114870
H9	H	0.780000	0.337400	0.393000	0.114870
H10	H	0.013300	0.335500	0.407600	0.115220
H11	H	0.056900	0.810600	0.482600	0.114870
H12	H	0.824800	0.764600	0.487200	0.114870
H13	H	0.134100	0.106800	0.286800	0.114870
H14	H	0.906000	0.154900	0.290700	0.114870
H15	H	0.780000	0.837400	0.107000	0.114870
H16	H	0.013300	0.835500	0.092400	0.115220
H17	H	0.056900	0.310600	0.017400	0.114870
H18	H	0.824800	0.264600	0.012800	0.114870
H19	H	0.865900	0.393200	0.786800	0.114870
H20	H	0.094000	0.345100	0.790700	0.114870
H21	H	0.220000	0.662600	0.607000	0.114870
H22	H	0.986700	0.664500	0.592400	0.115220
H23	H	0.943100	0.189400	0.517400	0.114870
H24	H	0.175200	0.235400	0.512800	0.114870
C1	C	0.924800	0.087400	0.848710	-0.101506
C2	C	0.969100	0.032300	0.807020	0.088287
C3	C	0.879000	0.990500	0.771450	-0.129083
C4	C	0.926000	0.922000	0.735670	-0.047566
C5	C	0.064500	0.895000	0.732820	-0.047566
C6	C	0.157000	0.941400	0.764290	-0.129695
C7	C	0.111900	0.016800	0.801130	0.085587
C8	C	0.205400	0.075100	0.832740	-0.125979
C9	C	0.158700	0.128500	0.871880	-0.045477
C10	C	0.017300	0.131700	0.880260	-0.046698
C11	C	0.781100	0.079100	0.864960	0.635444
C12	C	0.733000	0.029100	0.767080	0.736075
C13	C	0.353500	0.099100	0.822270	0.720577
C14	C	0.298200	0.895300	0.761380	0.736075
C15	C	0.881600	0.861300	0.989310	-0.105939
C16	C	0.973800	0.770600	0.986330	-0.049426
C17	C	0.114100	0.798400	0.988880	-0.047566
C18	C	0.161400	0.916900	0.993820	-0.122373
C19	C	0.928200	0.985800	0.998830	0.083061
C20	C	0.737000	0.827100	0.976470	0.663304
C21	C	0.311200	0.940800	0.985830	0.706856
C22	C	0.075200	0.412600	0.348710	-0.101506
C23	C	0.030900	0.467700	0.307020	0.088287
C24	C	0.121000	0.509500	0.271450	-0.129083
C25	C	0.074000	0.578000	0.235670	-0.047566
C26	C	0.935500	0.605000	0.232820	-0.047566
C27	C	0.843000	0.558600	0.264290	-0.129695
C28	C	0.888100	0.483200	0.301130	0.085587
C29	C	0.794600	0.424900	0.332740	-0.125979
C30	C	0.841300	0.371500	0.371880	-0.045477
C31	C	0.982700	0.368300	0.380260	-0.046698
C32	C	0.218900	0.420900	0.364960	0.635444
C33	C	0.267000	0.470900	0.267080	0.736075
C34	C	0.646500	0.400900	0.322270	0.720577
C35	C	0.701800	0.604700	0.261380	0.736075
C36	C	0.118400	0.638700	0.489310	-0.105939
C37	C	0.026200	0.729400	0.486330	-0.049426
C38	C	0.885900	0.701600	0.488880	-0.047566
C39	C	0.838600	0.583100	0.493820	-0.122373
C40	C	0.071800	0.514200	0.498830	0.083061
C41	C	0.263000	0.672900	0.476470	0.663304
C42	C	0.688800	0.559200	0.485830	0.706856
C43	C	0.075200	0.912600	0.151290	-0.101506
C44	C	0.030900	0.967700	0.192980	0.088287
C45	C	0.121000	0.009500	0.228550	-0.129083
C46	C	0.074000	0.078000	0.264330	-0.047566
C47	C	0.935500	0.105000	0.267180	-0.047566
C48	C	0.843000	0.058600	0.235710	-0.129695
C49	C	0.888100	0.983200	0.198870	0.085587
C50	C	0.794600	0.924900	0.167260	-0.125979
C51	C	0.841300	0.871500	0.128120	-0.045477
C52	C	0.982700	0.868300	0.119740	-0.046698
C53	C	0.218900	0.920900	0.135040	0.635444
C54	C	0.267000	0.970900	0.232920	0.736075
C55	C	0.646500	0.900900	0.177730	0.720577
C56	C	0.701800	0.104700	0.238620	0.736075
C57	C	0.118400	0.138700	0.010690	-0.105939
C58	C	0.026200	0.229400	0.013670	-0.049426
C59	C	0.885900	0.201600	0.011120	-0.047566
C60	C	0.838600	0.083100	0.006180	-0.122373
C61	C	0.071800	0.014200	0.001170	0.083061
C62	C	0.263000	0.172900	0.023530	0.663304
C63	C	0.688800	0.059200	0.014170	0.706856
C64	C	0.924800	0.587400	0.651290	-0.101506
C65	C	0.969100	0.532300	0.692980	0.088287
C66	C	0.879000	0.490500	0.728550	-0.129083
C67	C	0.926000	0.422000	0.764330	-0.047566
C68	C	0.064500	0.395000	0.767180	-0.047566
C69	C	0.157000	0.441400	0.735710	-0.129695
C70	C	0.111900	0.516800	0.698870	0.085587
C71	C	0.205400	0.575100	0.667260	-0.125979
C72	C	0.158700	0.628500	0.628120	-0.045477
C73	C	0.017300	0.631700	0.619740	-0.046698
C74	C	0.781100	0.579100	0.635040	0.635444
C75	C	0.733000	0.529100	0.732920	0.736075
C76	C	0.353500	0.599100	0.677730	0.720577
C77	C	0.298200	0.395300	0.738620	0.736075
C78	C	0.881600	0.361300	0.510690	-0.105939
C79	C	0.973800	0.270600	0.513670	-0.049426
C80	C	0.114100	0.298400	0.511120	-0.047566
C81	C	0.161400	0.416900	0.506180	-0.122373
C82	C	0.928200	0.485800	0.501170	0.083061
C83	C	0.737000	0.327100	0.523530	0.663304
C84	C	0.311200	0.440800	0.514170	0.706856
O1	O	0.712100	0.140700	0.772510	-0.640517
O2	O	0.643600	0.950700	0.754940	-0.640517
O3	O	0.707900	0.984400	0.858310	-0.545722
O4	O	0.735900	0.164200	0.890450	-0.545722
O5	O	0.383900	0.130400	0.782210	-0.639164
O6	O	0.437800	0.096300	0.854420	-0.613145
O7	O	0.355400	0.888700	0.722760	-0.640517
O8	O	0.355400	0.854000	0.796300	-0.640517
O9	O	0.677600	0.899300	0.949870	-0.626059
O10	O	0.685400	0.727400	0.990680	-0.507168
O11	O	0.394000	0.883800	0.009880	-0.611244
O12	O	0.341400	0.014100	0.953850	-0.611244
O13	O	0.287900	0.359300	0.272510	-0.640517
O14	O	0.356400	0.549300	0.254940	-0.640517
O15	O	0.292100	0.515600	0.358310	-0.545722
O16	O	0.264100	0.335800	0.390450	-0.545722
O17	O	0.616100	0.369600	0.282210	-0.639164
O18	O	0.562200	0.403700	0.354420	-0.613145
O19	O	0.644600	0.611300	0.222760	-0.640517
O20	O	0.644600	0.646000	0.296300	-0.640517
O21	O	0.322400	0.600700	0.449870	-0.626059
O22	O	0.314600	0.772600	0.490680	-0.507168
O23	O	0.606000	0.616200	0.509880	-0.611244
O24	O	0.658600	0.485900	0.453850	-0.611244
O25	O	0.287900	0.859300	0.227490	-0.640517
O26	O	0.356400	0.049300	0.245060	-0.640517
O27	O	0.292100	0.015600	0.141690	-0.545722
O28	O	0.264100	0.835800	0.109550	-0.545722
O29	O	0.616100	0.869600	0.217790	-0.639164
O30	O	0.562200	0.903700	0.145580	-0.613145
O31	O	0.644600	0.111300	0.277240	-0.640517
O32	O	0.644600	0.146000	0.203700	-0.640517
O33	O	0.322400	0.100700	0.050130	-0.626059
O34	O	0.314600	0.272600	0.009320	-0.507168
O35	O	0.606000	0.116200	0.990120	-0.611244
O36	O	0.658600	0.985900	0.046150	-0.611244
O37	O	0.712100	0.640700	0.727490	-0.640517
O38	O	0.643600	0.450700	0.745060	-0.640517
O39	O	0.707900	0.484400	0.641690	-0.545722
O40	O	0.735900	0.664200	0.609550	-0.545722
O41	O	0.383900	0.630400	0.717790	-0.639164
O42	O	0.437800	0.596300	0.645580	-0.613145
O43	O	0.355400	0.388700	0.777240	-0.640517
O44	O	0.355400	0.354000	0.703700	-0.640517
O45	O	0.677600	0.399300	0.550130	-0.626059
O46	O	0.685400	0.227400	0.509320	-0.507168
O47	O	0.394000	0.383800	0.490120	-0.611244
O48	O	0.341400	0.514100	0.546150	-0.611244
