data_NUCREJ_clean_PM
_symmetry_space_group_name_H-M	'P1'
_cell_length_a	11.321000
_cell_length_b	11.321000
_cell_length_c	19.872000
_cell_angle_alpha	90.000000
_cell_angle_beta	90.000000
_cell_angle_gamma	119.999999
_symmetry_Int_Tables_number 1

loop_
_symmetry_equiv_pos_as_xyz
'x,y,z'

loop_
_atom_site_label
_atom_site_type_symbol
_atom_site_fract_x
_atom_site_fract_y
_atom_site_fract_z
_atom_site_charge
Zn1	Zn	0.110150	0.408380	0.778260	0.886808
Zn2	Zn	0.298230	0.889850	0.111590	0.886808
Zn3	Zn	0.591620	0.701770	0.444930	0.886808
Zn4	Zn	0.701770	0.591620	0.221740	0.886808
Zn5	Zn	0.408380	0.110150	0.888410	0.886808
Zn6	Zn	0.889850	0.298230	0.555070	0.886808
Zn7	Zn	0.621770	0.000000	0.500000	1.095243
Zn8	Zn	0.378230	0.378230	0.833330	1.095243
Zn9	Zn	0.000000	0.621770	0.166670	1.095243
H1	H	0.157500	0.710000	0.764500	0.119954
H2	H	0.203000	0.837500	0.661100	0.136509
H3	H	0.086900	0.179100	0.531700	0.119954
H4	H	0.318400	0.273900	0.571700	0.136509
H5	H	0.467800	0.474900	0.657800	0.137296
H6	H	0.422300	0.583300	0.668500	0.137296
H7	H	0.150000	0.720300	0.530800	0.137296
H8	H	0.209200	0.624000	0.522800	0.137296
H9	H	0.552500	0.842500	0.097830	0.119954
H10	H	0.634500	0.797000	0.994430	0.136509
H11	H	0.092200	0.913100	0.865030	0.119954
H12	H	0.955500	0.681600	0.905030	0.136509
H13	H	0.007100	0.532200	0.991130	0.137296
H14	H	0.161000	0.577700	0.001830	0.137296
H15	H	0.570300	0.850000	0.864130	0.137296
H16	H	0.414800	0.790800	0.856130	0.137296
H17	H	0.290000	0.447500	0.431170	0.119954
H18	H	0.162500	0.365500	0.327770	0.136509
H19	H	0.820900	0.907800	0.198370	0.119954
H20	H	0.726100	0.044500	0.238370	0.136509
H21	H	0.525100	0.992900	0.324470	0.137296
H22	H	0.416700	0.839000	0.335170	0.137296
H23	H	0.279700	0.429700	0.197470	0.137296
H24	H	0.376000	0.585200	0.189470	0.137296
H25	H	0.447500	0.290000	0.235500	0.119954
H26	H	0.365500	0.162500	0.338900	0.136509
H27	H	0.907800	0.820900	0.468300	0.119954
H28	H	0.044500	0.726100	0.428300	0.136509
H29	H	0.992900	0.525100	0.342200	0.137296
H30	H	0.839000	0.416700	0.331500	0.137296
H31	H	0.429700	0.279700	0.469200	0.137296
H32	H	0.585200	0.376000	0.477200	0.137296
H33	H	0.710000	0.157500	0.902170	0.119954
H34	H	0.837500	0.203000	0.005570	0.136509
H35	H	0.179100	0.086900	0.134970	0.119954
H36	H	0.273900	0.318400	0.094970	0.136509
H37	H	0.474900	0.467800	0.008870	0.137296
H38	H	0.583300	0.422300	0.998170	0.137296
H39	H	0.720300	0.150000	0.135870	0.137296
H40	H	0.624000	0.209200	0.143870	0.137296
H41	H	0.842500	0.552500	0.568830	0.119954
H42	H	0.797000	0.634500	0.672230	0.136509
H43	H	0.913100	0.092200	0.801630	0.119954
H44	H	0.681600	0.955500	0.761630	0.136509
H45	H	0.532200	0.007100	0.675530	0.137296
H46	H	0.577700	0.161000	0.664830	0.137296
H47	H	0.850000	0.570300	0.802530	0.137296
H48	H	0.790800	0.414800	0.810530	0.137296
C1	C	0.168000	0.680500	0.722400	0.075801
C2	C	0.192300	0.750900	0.665700	-0.134624
C3	C	0.180000	0.555500	0.644900	0.168735
C4	C	0.186700	0.446500	0.610000	0.168735
C5	C	0.134600	0.259300	0.556400	0.075801
C6	C	0.262500	0.311400	0.578000	-0.134624
C7	C	0.430600	0.525100	0.635300	-0.228489
C8	C	0.529900	0.614000	0.581800	0.689375
C9	C	0.224100	0.706500	0.545100	-0.228191
C10	C	0.378800	0.804100	0.535600	0.689316
C11	C	0.512500	0.832000	0.055730	0.075801
C12	C	0.558600	0.807700	0.999030	-0.134624
C13	C	0.375500	0.820000	0.978230	0.168735
C14	C	0.259800	0.813300	0.943330	0.168735
C15	C	0.124700	0.865400	0.889730	0.075801
C16	C	0.048900	0.737500	0.911330	-0.134624
C17	C	0.094500	0.569400	0.968630	-0.228489
C18	C	0.084100	0.470100	0.915130	0.689375
C19	C	0.482400	0.775900	0.878430	-0.228191
C20	C	0.425300	0.621200	0.868930	0.689316
C21	C	0.319500	0.487500	0.389070	0.075801
C22	C	0.249100	0.441400	0.332370	-0.134624
C23	C	0.444500	0.624500	0.311570	0.168735
C24	C	0.553500	0.740200	0.276670	0.168735
C25	C	0.740700	0.875300	0.223070	0.075801
C26	C	0.688600	0.951100	0.244670	-0.134624
C27	C	0.474900	0.905500	0.301970	-0.228489
C28	C	0.386000	0.915900	0.248470	0.689375
C29	C	0.293500	0.517600	0.211770	-0.228191
C30	C	0.195900	0.574700	0.202270	0.689316
C31	C	0.487500	0.319500	0.277600	0.075801
C32	C	0.441400	0.249100	0.334300	-0.134624
C33	C	0.624500	0.444500	0.355100	0.168735
C34	C	0.740200	0.553500	0.390000	0.168735
C35	C	0.875300	0.740700	0.443600	0.075801
C36	C	0.951100	0.688600	0.422000	-0.134624
C37	C	0.905500	0.474900	0.364700	-0.228489
C38	C	0.915900	0.386000	0.418200	0.689375
C39	C	0.517600	0.293500	0.454900	-0.228191
C40	C	0.574700	0.195900	0.464400	0.689316
C41	C	0.680500	0.168000	0.944270	0.075801
C42	C	0.750900	0.192300	0.000970	-0.134624
C43	C	0.555500	0.180000	0.021770	0.168735
C44	C	0.446500	0.186700	0.056670	0.168735
C45	C	0.259300	0.134600	0.110270	0.075801
C46	C	0.311400	0.262500	0.088670	-0.134624
C47	C	0.525100	0.430600	0.031370	-0.228489
C48	C	0.614000	0.529900	0.084870	0.689375
C49	C	0.706500	0.224100	0.121570	-0.228191
C50	C	0.804100	0.378800	0.131070	0.689316
C51	C	0.832000	0.512500	0.610930	0.075801
C52	C	0.807700	0.558600	0.667630	-0.134624
C53	C	0.820000	0.375500	0.688430	0.168735
C54	C	0.813300	0.259800	0.723330	0.168735
C55	C	0.865400	0.124700	0.776930	0.075801
C56	C	0.737500	0.048900	0.755330	-0.134624
C57	C	0.569400	0.094500	0.698030	-0.228489
C58	C	0.470100	0.084100	0.751530	0.689375
C59	C	0.775900	0.482400	0.788230	-0.228191
C60	C	0.621200	0.425300	0.797730	0.689316
N1	N	0.160800	0.559600	0.710000	-0.360692
N2	N	0.198500	0.670900	0.614700	0.070966
N3	N	0.083000	0.342500	0.576300	-0.360692
N4	N	0.296500	0.429300	0.610700	0.070966
N5	N	0.398800	0.839200	0.043330	-0.360692
N6	N	0.472400	0.801500	0.948030	0.070966
N7	N	0.259500	0.917000	0.909630	-0.360692
N8	N	0.132800	0.703500	0.944030	0.070966
N9	N	0.440400	0.601200	0.376670	-0.360692
N10	N	0.329100	0.527600	0.281370	0.070966
N11	N	0.657500	0.740500	0.242970	-0.360692
N12	N	0.570700	0.867200	0.277370	0.070966
N13	N	0.601200	0.440400	0.290000	-0.360692
N14	N	0.527600	0.329100	0.385300	0.070966
N15	N	0.740500	0.657500	0.423700	-0.360692
N16	N	0.867200	0.570700	0.389300	0.070966
N17	N	0.559600	0.160800	0.956670	-0.360692
N18	N	0.670900	0.198500	0.051970	0.070966
N19	N	0.342500	0.083000	0.090370	-0.360692
N20	N	0.429300	0.296500	0.055970	0.070966
N21	N	0.839200	0.398800	0.623330	-0.360692
N22	N	0.801500	0.472400	0.718630	0.070966
N23	N	0.917000	0.259500	0.757030	-0.360692
N24	N	0.703500	0.132800	0.722630	0.070966
O1	O	0.483100	0.594700	0.522000	-0.607196
O2	O	0.645500	0.697900	0.599200	-0.602231
O3	O	0.673100	0.893200	0.442900	-0.621278
O4	O	0.463300	0.841000	0.584600	-0.603344
O5	O	0.421600	0.854100	0.477500	-0.624873
O6	O	0.111600	0.516900	0.855330	-0.607196
O7	O	0.052400	0.354500	0.932530	-0.602231
O8	O	0.220100	0.326900	0.776230	-0.621278
O9	O	0.377700	0.536700	0.917930	-0.603344
O10	O	0.432500	0.578400	0.810830	-0.624873
O11	O	0.405300	0.888400	0.188670	-0.607196
O12	O	0.302100	0.947600	0.265870	-0.602231
O13	O	0.106800	0.779900	0.109570	-0.621278
O14	O	0.159000	0.622300	0.251270	-0.603344
O15	O	0.145900	0.567500	0.144170	-0.624873
O16	O	0.888400	0.405300	0.478000	-0.607196
O17	O	0.947600	0.302100	0.400800	-0.602231
O18	O	0.779900	0.106800	0.557100	-0.621278
O19	O	0.622300	0.159000	0.415400	-0.603344
O20	O	0.567500	0.145900	0.522500	-0.624873
O21	O	0.594700	0.483100	0.144670	-0.607196
O22	O	0.697900	0.645500	0.067470	-0.602231
O23	O	0.893200	0.673100	0.223770	-0.621278
O24	O	0.841000	0.463300	0.082070	-0.603344
O25	O	0.854100	0.421600	0.189170	-0.624873
O26	O	0.516900	0.111600	0.811330	-0.607196
O27	O	0.354500	0.052400	0.734130	-0.602231
O28	O	0.326900	0.220100	0.890430	-0.621278
O29	O	0.536700	0.377700	0.748730	-0.603344
O30	O	0.578400	0.432500	0.855830	-0.624873
