data_NUTQEZ_clean_PM
_symmetry_space_group_name_H-M	'P1'
_cell_length_a	15.126200
_cell_length_b	15.126200
_cell_length_c	15.126200
_cell_angle_alpha	103.594000
_cell_angle_beta	103.594000
_cell_angle_gamma	103.594001
_symmetry_Int_Tables_number 1

loop_
_symmetry_equiv_pos_as_xyz
'x,y,z'

loop_
_atom_site_label
_atom_site_type_symbol
_atom_site_fract_x
_atom_site_fract_y
_atom_site_fract_z
_atom_site_charge
Cu1	Cu	0.574990	0.979980	0.979980	0.893955
Cu2	Cu	0.979980	0.574990	0.979980	0.893955
Cu3	Cu	0.979980	0.979980	0.574990	0.893955
Cu4	Cu	0.020020	0.425010	0.020020	0.893955
Cu5	Cu	0.425010	0.020020	0.020020	0.893955
Cu6	Cu	0.020020	0.020020	0.425010	0.893955
H1	H	0.508100	0.695700	0.981700	0.114059
H2	H	0.981700	0.508100	0.695700	0.114059
H3	H	0.695700	0.981700	0.508100	0.114059
H4	H	0.304300	0.491900	0.018300	0.114059
H5	H	0.491900	0.018300	0.304300	0.114059
H6	H	0.018300	0.304300	0.491900	0.114059
H7	H	0.491900	0.304300	0.018300	0.114059
H8	H	0.018300	0.491900	0.304300	0.114059
H9	H	0.304300	0.018300	0.491900	0.114059
H10	H	0.695700	0.508100	0.981700	0.114059
H11	H	0.508100	0.981700	0.695700	0.114059
H12	H	0.981700	0.695700	0.508100	0.114059
H13	H	0.259750	0.740250	0.000000	0.109370
H14	H	0.000000	0.259750	0.740250	0.109370
H15	H	0.740250	0.000000	0.259750	0.109370
H16	H	0.740250	0.259750	0.000000	0.109370
H17	H	0.000000	0.740250	0.259750	0.109370
H18	H	0.259750	0.000000	0.740250	0.109370
C1	C	0.425000	0.830000	0.984500	0.671361
C2	C	0.388900	0.732000	0.989300	-0.128618
C3	C	0.446800	0.674200	0.989200	-0.055530
C4	C	0.984500	0.425000	0.830000	0.671361
C5	C	0.989300	0.388900	0.732000	-0.128618
C6	C	0.989200	0.446800	0.674200	-0.055530
C7	C	0.830000	0.984500	0.425000	0.671361
C8	C	0.732000	0.989300	0.388900	-0.128618
C9	C	0.674200	0.989200	0.446800	-0.055530
C10	C	0.170000	0.575000	0.015500	0.671361
C11	C	0.268000	0.611100	0.010700	-0.128618
C12	C	0.325800	0.553200	0.010800	-0.055530
C13	C	0.575000	0.015500	0.170000	0.671361
C14	C	0.611100	0.010700	0.268000	-0.128618
C15	C	0.553200	0.010800	0.325800	-0.055530
C16	C	0.015500	0.170000	0.575000	0.671361
C17	C	0.010700	0.268000	0.611100	-0.128618
C18	C	0.010800	0.325800	0.553200	-0.055530
C19	C	0.575000	0.170000	0.015500	0.671361
C20	C	0.611100	0.268000	0.010700	-0.128618
C21	C	0.553200	0.325800	0.010800	-0.055530
C22	C	0.015500	0.575000	0.170000	0.671361
C23	C	0.010700	0.611100	0.268000	-0.128618
C24	C	0.010800	0.553200	0.325800	-0.055530
C25	C	0.170000	0.015500	0.575000	0.671361
C26	C	0.268000	0.010700	0.611100	-0.128618
C27	C	0.325800	0.010800	0.553200	-0.055530
C28	C	0.830000	0.425000	0.984500	0.671361
C29	C	0.732000	0.388900	0.989300	-0.128618
C30	C	0.674200	0.446800	0.989200	-0.055530
C31	C	0.425000	0.984500	0.830000	0.671361
C32	C	0.388900	0.989300	0.732000	-0.128618
C33	C	0.446800	0.989200	0.674200	-0.055530
C34	C	0.984500	0.830000	0.425000	0.671361
C35	C	0.989300	0.732000	0.388900	-0.128618
C36	C	0.989200	0.674200	0.446800	-0.055530
C37	C	0.299750	0.700250	0.000000	0.008766
C38	C	0.415650	0.584350	0.000000	0.063396
C39	C	0.475250	0.524750	0.000000	-0.080296
C40	C	0.000000	0.299750	0.700250	0.008766
C41	C	0.000000	0.415650	0.584350	0.063396
C42	C	0.000000	0.475250	0.524750	-0.080296
C43	C	0.700250	0.000000	0.299750	0.008766
C44	C	0.584350	0.000000	0.415650	0.063396
C45	C	0.524750	0.000000	0.475250	-0.080296
C46	C	0.700250	0.299750	0.000000	0.008766
C47	C	0.584350	0.415650	0.000000	0.063396
C48	C	0.524750	0.475250	0.000000	-0.080296
C49	C	0.000000	0.700250	0.299750	0.008766
C50	C	0.000000	0.584350	0.415650	0.063396
C51	C	0.000000	0.524750	0.475250	-0.080296
C52	C	0.299750	0.000000	0.700250	0.008766
C53	C	0.415650	0.000000	0.584350	0.063396
C54	C	0.475250	0.000000	0.524750	-0.080296
O1	O	0.502530	0.849770	0.967300	-0.549434
O2	O	0.375800	0.884000	0.000100	-0.549434
O3	O	0.967300	0.502530	0.849770	-0.549434
O4	O	0.000100	0.375800	0.884000	-0.549434
O5	O	0.849770	0.967300	0.502530	-0.549434
O6	O	0.884000	0.000100	0.375800	-0.549434
O7	O	0.150230	0.497470	0.032700	-0.549434
O8	O	0.116000	0.624200	0.999900	-0.549434
O9	O	0.497470	0.032700	0.150230	-0.549434
O10	O	0.624200	0.999900	0.116000	-0.549434
O11	O	0.032700	0.150230	0.497470	-0.549434
O12	O	0.999900	0.116000	0.624200	-0.549434
O13	O	0.497470	0.150230	0.032700	-0.549434
O14	O	0.624200	0.116000	0.999900	-0.549434
O15	O	0.032700	0.497470	0.150230	-0.549434
O16	O	0.999900	0.624200	0.116000	-0.549434
O17	O	0.150230	0.032700	0.497470	-0.549434
O18	O	0.116000	0.999900	0.624200	-0.549434
O19	O	0.849770	0.502530	0.967300	-0.549434
O20	O	0.884000	0.375800	0.000100	-0.549434
O21	O	0.502530	0.967300	0.849770	-0.549434
O22	O	0.375800	0.000100	0.884000	-0.549434
O23	O	0.967300	0.849770	0.502530	-0.549434
O24	O	0.000100	0.884000	0.375800	-0.549434
