data_NUVWIL_clean_PM
_symmetry_space_group_name_H-M	'P1'
_cell_length_a	15.118000
_cell_length_b	15.370800
_cell_length_c	15.370800
_cell_angle_alpha	120.000001
_cell_angle_beta	90.000000
_cell_angle_gamma	90.000000
_symmetry_Int_Tables_number 1

loop_
_symmetry_equiv_pos_as_xyz
'x,y,z'

loop_
_atom_site_label
_atom_site_type_symbol
_atom_site_fract_x
_atom_site_fract_y
_atom_site_fract_z
_atom_site_charge
La1	La	0.750000	0.333330	0.666660	2.088028
La2	La	0.750000	0.666670	0.333340	2.088028
La3	La	0.250000	0.666670	0.333340	2.088028
La4	La	0.250000	0.333330	0.666660	2.088028
Zn1	Zn	0.000000	0.500000	0.500000	1.058959
Zn2	Zn	0.000000	0.000000	0.500000	1.058959
Zn3	Zn	0.000000	0.500000	0.000000	1.058959
Zn4	Zn	0.500000	0.000000	0.500000	1.058959
Zn5	Zn	0.500000	0.500000	0.500000	1.058959
Zn6	Zn	0.500000	0.500000	0.000000	1.058959
H1	H	0.760600	0.287000	0.378900	0.101007
H2	H	0.835800	0.211300	0.367200	0.101007
H3	H	0.760600	0.091900	0.713000	0.101007
H4	H	0.835800	0.155900	0.788700	0.101007
H5	H	0.760600	0.621100	0.908100	0.101007
H6	H	0.835800	0.632800	0.844100	0.101007
H7	H	0.760600	0.713000	0.621100	0.101007
H8	H	0.835800	0.788700	0.632800	0.101007
H9	H	0.760600	0.908100	0.287000	0.101007
H10	H	0.835800	0.844100	0.211300	0.101007
H11	H	0.760600	0.378900	0.091900	0.101007
H12	H	0.835800	0.367200	0.155900	0.101007
H13	H	0.739400	0.908100	0.621100	0.101007
H14	H	0.664200	0.844100	0.632800	0.101007
H15	H	0.739400	0.378900	0.287000	0.101007
H16	H	0.664200	0.367200	0.211300	0.101007
H17	H	0.739400	0.713000	0.091900	0.101007
H18	H	0.664200	0.788700	0.155900	0.101007
H19	H	0.739400	0.091900	0.378900	0.101007
H20	H	0.664200	0.155900	0.367200	0.101007
H21	H	0.739400	0.621100	0.713000	0.101007
H22	H	0.664200	0.632800	0.788700	0.101007
H23	H	0.739400	0.287000	0.908100	0.101007
H24	H	0.664200	0.211300	0.844100	0.101007
H25	H	0.239400	0.713000	0.621100	0.101007
H26	H	0.164200	0.788700	0.632800	0.101007
H27	H	0.239400	0.908100	0.287000	0.101007
H28	H	0.164200	0.844100	0.211300	0.101007
H29	H	0.239400	0.378900	0.091900	0.101007
H30	H	0.164200	0.367200	0.155900	0.101007
H31	H	0.239400	0.287000	0.378900	0.101007
H32	H	0.164200	0.211300	0.367200	0.101007
H33	H	0.239400	0.091900	0.713000	0.101007
H34	H	0.164200	0.155900	0.788700	0.101007
H35	H	0.239400	0.621100	0.908100	0.101007
H36	H	0.164200	0.632800	0.844100	0.101007
H37	H	0.260600	0.091900	0.378900	0.101007
H38	H	0.335800	0.155900	0.367200	0.101007
H39	H	0.260600	0.621100	0.713000	0.101007
H40	H	0.335800	0.632800	0.788700	0.101007
H41	H	0.260600	0.287000	0.908100	0.101007
H42	H	0.335800	0.211300	0.844100	0.101007
H43	H	0.260600	0.908100	0.621100	0.101007
H44	H	0.335800	0.844100	0.632800	0.101007
H45	H	0.260600	0.378900	0.287000	0.101007
H46	H	0.335800	0.367200	0.211300	0.101007
H47	H	0.260600	0.713000	0.091900	0.101007
H48	H	0.335800	0.788700	0.155900	0.101007
C1	C	0.858400	0.353000	0.482700	0.716545
C2	C	0.799900	0.266900	0.415600	-0.060402
C3	C	0.858400	0.129700	0.647000	0.716545
C4	C	0.799900	0.148700	0.733100	-0.060402
C5	C	0.858400	0.517300	0.870300	0.716545
C6	C	0.799900	0.584400	0.851300	-0.060402
C7	C	0.858400	0.647000	0.517300	0.716545
C8	C	0.799900	0.733100	0.584400	-0.060402
C9	C	0.858400	0.870300	0.353000	0.716545
C10	C	0.799900	0.851300	0.266900	-0.060402
C11	C	0.858400	0.482700	0.129700	0.716545
C12	C	0.799900	0.415600	0.148700	-0.060402
C13	C	0.641600	0.870300	0.517300	0.716545
C14	C	0.700100	0.851300	0.584400	-0.060402
C15	C	0.641600	0.482700	0.353000	0.716545
C16	C	0.700100	0.415600	0.266900	-0.060402
C17	C	0.641600	0.647000	0.129700	0.716545
C18	C	0.700100	0.733100	0.148700	-0.060402
C19	C	0.641600	0.129700	0.482700	0.716545
C20	C	0.700100	0.148700	0.415600	-0.060402
C21	C	0.641600	0.517300	0.647000	0.716545
C22	C	0.700100	0.584400	0.733100	-0.060402
C23	C	0.641600	0.353000	0.870300	0.716545
C24	C	0.700100	0.266900	0.851300	-0.060402
C25	C	0.141600	0.647000	0.517300	0.716545
C26	C	0.200100	0.733100	0.584400	-0.060402
C27	C	0.141600	0.870300	0.353000	0.716545
C28	C	0.200100	0.851300	0.266900	-0.060402
C29	C	0.141600	0.482700	0.129700	0.716545
C30	C	0.200100	0.415600	0.148700	-0.060402
C31	C	0.141600	0.353000	0.482700	0.716545
C32	C	0.200100	0.266900	0.415600	-0.060402
C33	C	0.141600	0.129700	0.647000	0.716545
C34	C	0.200100	0.148700	0.733100	-0.060402
C35	C	0.141600	0.517300	0.870300	0.716545
C36	C	0.200100	0.584400	0.851300	-0.060402
C37	C	0.358400	0.129700	0.482700	0.716545
C38	C	0.299900	0.148700	0.415600	-0.060402
C39	C	0.358400	0.517300	0.647000	0.716545
C40	C	0.299900	0.584400	0.733100	-0.060402
C41	C	0.358400	0.353000	0.870300	0.716545
C42	C	0.299900	0.266900	0.851300	-0.060402
C43	C	0.358400	0.870300	0.517300	0.716545
C44	C	0.299900	0.851300	0.584400	-0.060402
C45	C	0.358400	0.482700	0.353000	0.716545
C46	C	0.299900	0.415600	0.266900	-0.060402
C47	C	0.358400	0.647000	0.129700	0.716545
C48	C	0.299900	0.733100	0.148700	-0.060402
O1	O	0.858040	0.382050	0.574900	-0.679089
O2	O	0.904050	0.389180	0.441190	-0.637887
O3	O	0.858040	0.192850	0.617950	-0.679089
O4	O	0.904050	0.052010	0.610820	-0.637887
O5	O	0.858040	0.425100	0.807150	-0.679089
O6	O	0.904050	0.558810	0.947990	-0.637887
O7	O	0.858040	0.617950	0.425100	-0.679089
O8	O	0.904050	0.610820	0.558810	-0.637887
O9	O	0.858040	0.807150	0.382050	-0.679089
O10	O	0.904050	0.947990	0.389180	-0.637887
O11	O	0.858040	0.574900	0.192850	-0.679089
O12	O	0.904050	0.441190	0.052010	-0.637887
O13	O	0.641960	0.807150	0.425100	-0.679089
O14	O	0.595950	0.947990	0.558810	-0.637887
O15	O	0.641960	0.574900	0.382050	-0.679089
O16	O	0.595950	0.441190	0.389180	-0.637887
O17	O	0.641960	0.617950	0.192850	-0.679089
O18	O	0.595950	0.610820	0.052010	-0.637887
O19	O	0.641960	0.192850	0.574900	-0.679089
O20	O	0.595950	0.052010	0.441190	-0.637887
O21	O	0.641960	0.425100	0.617950	-0.679089
O22	O	0.595950	0.558810	0.610820	-0.637887
O23	O	0.641960	0.382050	0.807150	-0.679089
O24	O	0.595950	0.389180	0.947990	-0.637887
O25	O	0.141960	0.617950	0.425100	-0.679089
O26	O	0.095950	0.610820	0.558810	-0.637887
O27	O	0.141960	0.807150	0.382050	-0.679089
O28	O	0.095950	0.947990	0.389180	-0.637887
O29	O	0.141960	0.574900	0.192850	-0.679089
O30	O	0.095950	0.441190	0.052010	-0.637887
O31	O	0.141960	0.382050	0.574900	-0.679089
O32	O	0.095950	0.389180	0.441190	-0.637887
O33	O	0.141960	0.192850	0.617950	-0.679089
O34	O	0.095950	0.052010	0.610820	-0.637887
O35	O	0.141960	0.425100	0.807150	-0.679089
O36	O	0.095950	0.558810	0.947990	-0.637887
O37	O	0.358040	0.192850	0.574900	-0.679089
O38	O	0.404050	0.052010	0.441190	-0.637887
O39	O	0.358040	0.425100	0.617950	-0.679089
O40	O	0.404050	0.558810	0.610820	-0.637887
O41	O	0.358040	0.382050	0.807150	-0.679089
O42	O	0.404050	0.389180	0.947990	-0.637887
O43	O	0.358040	0.807150	0.425100	-0.679089
O44	O	0.404050	0.947990	0.558810	-0.637887
O45	O	0.358040	0.574900	0.382050	-0.679089
O46	O	0.404050	0.441190	0.389180	-0.637887
O47	O	0.358040	0.617950	0.192850	-0.679089
O48	O	0.404050	0.610820	0.052010	-0.637887
O49	O	0.750000	0.236090	0.472180	-0.307850
O50	O	0.750000	0.236090	0.763910	-0.307850
O51	O	0.750000	0.527820	0.763910	-0.307850
O52	O	0.750000	0.763910	0.527820	-0.307850
O53	O	0.750000	0.763910	0.236090	-0.307850
O54	O	0.750000	0.472180	0.236090	-0.307850
O55	O	0.250000	0.763910	0.527820	-0.307850
O56	O	0.250000	0.763910	0.236090	-0.307850
O57	O	0.250000	0.472180	0.236090	-0.307850
O58	O	0.250000	0.236090	0.472180	-0.307850
O59	O	0.250000	0.236090	0.763910	-0.307850
O60	O	0.250000	0.527820	0.763910	-0.307850
