data_NUYWOU_clean_PM
_symmetry_space_group_name_H-M	'P1'
_cell_length_a	13.139000
_cell_length_b	14.865000
_cell_length_c	14.865000
_cell_angle_alpha	90.000000
_cell_angle_beta	90.000000
_cell_angle_gamma	90.000000
_symmetry_Int_Tables_number 1

loop_
_symmetry_equiv_pos_as_xyz
'x,y,z'

loop_
_atom_site_label
_atom_site_type_symbol
_atom_site_fract_x
_atom_site_fract_y
_atom_site_fract_z
_atom_site_charge
Cd1	Cd	0.500000	0.730530	0.730530	0.944042
Cd2	Cd	0.000000	0.269470	0.269470	0.944042
Cd3	Cd	0.750000	0.769470	0.230530	0.944042
Cd4	Cd	0.250000	0.230530	0.769470	0.944042
H1	H	0.418700	0.953500	0.687000	0.106865
H2	H	0.269900	0.994600	0.596900	0.133319
H3	H	0.299400	0.728200	0.595800	0.099132
H4	H	0.196200	0.950400	0.439600	0.122381
H5	H	0.055600	0.931200	0.344900	0.097439
H6	H	0.966300	0.720700	0.493800	0.097439
H7	H	0.108900	0.737200	0.586200	0.122381
H8	H	0.456600	0.524500	0.701300	0.075741
H9	H	0.459000	0.403200	0.592700	0.127603
H10	H	0.581300	0.687000	0.953500	0.106865
H11	H	0.730100	0.596900	0.994600	0.133319
H12	H	0.700600	0.595800	0.728200	0.099132
H13	H	0.803800	0.439600	0.950400	0.122381
H14	H	0.944400	0.344900	0.931200	0.097439
H15	H	0.033700	0.493800	0.720700	0.097439
H16	H	0.891100	0.586200	0.737200	0.122381
H17	H	0.543400	0.701300	0.524500	0.075741
H18	H	0.541000	0.592700	0.403200	0.127603
H19	H	0.500000	0.445900	0.445900	0.092852
H20	H	0.918700	0.046500	0.313000	0.106865
H21	H	0.769900	0.005400	0.403100	0.133319
H22	H	0.799400	0.271800	0.404200	0.099132
H23	H	0.696200	0.049600	0.560400	0.122381
H24	H	0.555600	0.068800	0.655100	0.097439
H25	H	0.466300	0.279300	0.506200	0.097439
H26	H	0.608900	0.262800	0.413800	0.122381
H27	H	0.956600	0.475500	0.298700	0.075741
H28	H	0.959000	0.596800	0.407300	0.127603
H29	H	0.081300	0.313000	0.046500	0.106865
H30	H	0.230100	0.403100	0.005400	0.133319
H31	H	0.200600	0.404200	0.271800	0.099132
H32	H	0.303800	0.560400	0.049600	0.122381
H33	H	0.444400	0.655100	0.068800	0.097439
H34	H	0.533700	0.506200	0.279300	0.097439
H35	H	0.391100	0.413800	0.262800	0.122381
H36	H	0.043400	0.298700	0.475500	0.075741
H37	H	0.041000	0.407300	0.596800	0.127603
H38	H	0.000000	0.554100	0.554100	0.092852
H39	H	0.668700	0.813000	0.453500	0.106865
H40	H	0.519900	0.903100	0.494600	0.133319
H41	H	0.549400	0.904200	0.228200	0.099132
H42	H	0.446200	0.060400	0.450400	0.122381
H43	H	0.305600	0.155100	0.431200	0.097439
H44	H	0.216300	0.006200	0.220700	0.097439
H45	H	0.358900	0.913800	0.237200	0.122381
H46	H	0.706600	0.798700	0.024500	0.075741
H47	H	0.709000	0.907300	0.903200	0.127603
H48	H	0.831300	0.546500	0.187000	0.106865
H49	H	0.980100	0.505400	0.096900	0.133319
H50	H	0.950600	0.771800	0.095800	0.099132
H51	H	0.053800	0.549600	0.939600	0.122381
H52	H	0.194400	0.568800	0.844900	0.097439
H53	H	0.283700	0.779300	0.993800	0.097439
H54	H	0.141100	0.762800	0.086200	0.122381
H55	H	0.793400	0.975500	0.201300	0.075741
H56	H	0.791000	0.096800	0.092700	0.127603
H57	H	0.750000	0.054100	0.945900	0.092852
H58	H	0.168700	0.187000	0.546500	0.106865
H59	H	0.019900	0.096900	0.505400	0.133319
H60	H	0.049400	0.095800	0.771800	0.099132
H61	H	0.946200	0.939600	0.549600	0.122381
H62	H	0.805600	0.844900	0.568800	0.097439
H63	H	0.716300	0.993800	0.779300	0.097439
H64	H	0.858900	0.086200	0.762800	0.122381
H65	H	0.206600	0.201300	0.975500	0.075741
H66	H	0.209000	0.092700	0.096800	0.127603
H67	H	0.331300	0.453500	0.813000	0.106865
H68	H	0.480100	0.494600	0.903100	0.133319
H69	H	0.450600	0.228200	0.904200	0.099132
H70	H	0.553800	0.450400	0.060400	0.122381
H71	H	0.694400	0.431200	0.155100	0.097439
H72	H	0.783700	0.220700	0.006200	0.097439
H73	H	0.641100	0.237200	0.913800	0.122381
H74	H	0.293400	0.024500	0.798700	0.075741
H75	H	0.291000	0.903200	0.907300	0.127603
H76	H	0.250000	0.945900	0.054100	0.092852
C1	C	0.376100	0.913600	0.657000	0.053745
C2	C	0.293900	0.936800	0.607700	-0.151407
C3	C	0.311200	0.788700	0.607300	0.111391
C4	C	0.164100	0.845900	0.521300	0.127705
C5	C	0.150200	0.904000	0.449900	-0.182103
C6	C	0.066000	0.892300	0.393000	-0.000240
C7	C	0.998400	0.822500	0.408900	-0.157913
C8	C	0.013200	0.766000	0.482000	-0.000240
C9	C	0.097800	0.776300	0.538400	-0.182103
C10	C	0.908100	0.807400	0.348200	0.622332
C11	C	0.475000	0.536400	0.642000	0.170699
C12	C	0.474000	0.462300	0.577500	-0.178409
C13	C	0.623900	0.657000	0.913600	0.053745
C14	C	0.706100	0.607700	0.936800	-0.151407
C15	C	0.688800	0.607300	0.788700	0.111391
C16	C	0.835900	0.521300	0.845900	0.127705
C17	C	0.849800	0.449900	0.904000	-0.182103
C18	C	0.934000	0.393000	0.892300	-0.000240
C19	C	0.001600	0.408900	0.822500	-0.157913
C20	C	0.986800	0.482000	0.766000	-0.000240
C21	C	0.902200	0.538400	0.776300	-0.182103
C22	C	0.091900	0.348200	0.807400	0.622332
C23	C	0.525000	0.642000	0.536400	0.170699
C24	C	0.526000	0.577500	0.462300	-0.178409
C25	C	0.500000	0.490100	0.490100	0.034805
C26	C	0.876100	0.086400	0.343000	0.053745
C27	C	0.793900	0.063200	0.392300	-0.151407
C28	C	0.811200	0.211300	0.392700	0.111391
C29	C	0.664100	0.154100	0.478700	0.127705
C30	C	0.650200	0.096000	0.550100	-0.182103
C31	C	0.566000	0.107700	0.607000	-0.000240
C32	C	0.498400	0.177500	0.591100	-0.157913
C33	C	0.513200	0.234000	0.518000	-0.000240
C34	C	0.597800	0.223700	0.461600	-0.182103
C35	C	0.408100	0.192600	0.651800	0.622332
C36	C	0.975000	0.463600	0.358000	0.170699
C37	C	0.974000	0.537700	0.422500	-0.178409
C38	C	0.123900	0.343000	0.086400	0.053745
C39	C	0.206100	0.392300	0.063200	-0.151407
C40	C	0.188800	0.392700	0.211300	0.111391
C41	C	0.335900	0.478700	0.154100	0.127705
C42	C	0.349800	0.550100	0.096000	-0.182103
C43	C	0.434000	0.607000	0.107700	-0.000240
C44	C	0.501600	0.591100	0.177500	-0.157913
C45	C	0.486800	0.518000	0.234000	-0.000240
C46	C	0.402200	0.461600	0.223700	-0.182103
C47	C	0.591900	0.651800	0.192600	0.622332
C48	C	0.025000	0.358000	0.463600	0.170699
C49	C	0.026000	0.422500	0.537700	-0.178409
C50	C	0.000000	0.509900	0.509900	0.034805
C51	C	0.626100	0.843000	0.413600	0.053745
C52	C	0.543900	0.892300	0.436800	-0.151407
C53	C	0.561200	0.892700	0.288700	0.111391
C54	C	0.414100	0.978700	0.345900	0.127705
C55	C	0.400200	0.050100	0.404000	-0.182103
C56	C	0.316000	0.107000	0.392300	-0.000240
C57	C	0.248400	0.091100	0.322500	-0.157913
C58	C	0.263200	0.018000	0.266000	-0.000240
C59	C	0.347800	0.961600	0.276300	-0.182103
C60	C	0.158100	0.151800	0.307400	0.622332
C61	C	0.725000	0.858000	0.036400	0.170699
C62	C	0.724000	0.922500	0.962300	-0.178409
C63	C	0.873900	0.586400	0.157000	0.053745
C64	C	0.956100	0.563200	0.107700	-0.151407
C65	C	0.938800	0.711300	0.107300	0.111391
C66	C	0.085900	0.654100	0.021300	0.127705
C67	C	0.099800	0.596000	0.949900	-0.182103
C68	C	0.184000	0.607700	0.893000	-0.000240
C69	C	0.251600	0.677500	0.908900	-0.157913
C70	C	0.236800	0.734000	0.982000	-0.000240
C71	C	0.152200	0.723700	0.038400	-0.182103
C72	C	0.341900	0.692600	0.848200	0.622332
C73	C	0.775000	0.963600	0.142000	0.170699
C74	C	0.776000	0.037700	0.077500	-0.178409
C75	C	0.750000	0.009900	0.990100	0.034805
C76	C	0.126100	0.157000	0.586400	0.053745
C77	C	0.043900	0.107700	0.563200	-0.151407
C78	C	0.061200	0.107300	0.711300	0.111391
C79	C	0.914100	0.021300	0.654100	0.127705
C80	C	0.900200	0.949900	0.596000	-0.182103
C81	C	0.816000	0.893000	0.607700	-0.000240
C82	C	0.748400	0.908900	0.677500	-0.157913
C83	C	0.763200	0.982000	0.734000	-0.000240
C84	C	0.847800	0.038400	0.723700	-0.182103
C85	C	0.658100	0.848200	0.692600	0.622332
C86	C	0.225000	0.142000	0.963600	0.170699
C87	C	0.224000	0.077500	0.037700	-0.178409
C88	C	0.373900	0.413600	0.843000	0.053745
C89	C	0.456100	0.436800	0.892300	-0.151407
C90	C	0.438800	0.288700	0.892700	0.111391
C91	C	0.585900	0.345900	0.978700	0.127705
C92	C	0.599800	0.404000	0.050100	-0.182103
C93	C	0.684000	0.392300	0.107000	-0.000240
C94	C	0.751600	0.322500	0.091100	-0.157913
C95	C	0.736800	0.266000	0.018000	-0.000240
C96	C	0.652200	0.276300	0.961600	-0.182103
C97	C	0.841900	0.307400	0.151800	0.622332
C98	C	0.275000	0.036400	0.858000	0.170699
C99	C	0.276000	0.962300	0.922500	-0.178409
C100	C	0.250000	0.990100	0.009900	0.034805
N1	N	0.387200	0.819900	0.655800	-0.367529
N2	N	0.252700	0.857200	0.576600	0.042330
N3	N	0.612800	0.655800	0.819900	-0.367529
N4	N	0.747300	0.576600	0.857200	0.042330
N5	N	0.500000	0.619800	0.619800	-0.332947
N6	N	0.887200	0.180100	0.344200	-0.367529
N7	N	0.752700	0.142800	0.423400	0.042330
N8	N	0.112800	0.344200	0.180100	-0.367529
N9	N	0.247300	0.423400	0.142800	0.042330
N10	N	0.000000	0.380200	0.380200	-0.332947
N11	N	0.637200	0.844200	0.319900	-0.367529
N12	N	0.502700	0.923400	0.357200	0.042330
N13	N	0.862800	0.680100	0.155800	-0.367529
N14	N	0.997300	0.642800	0.076600	0.042330
N15	N	0.750000	0.880200	0.119800	-0.332947
N16	N	0.137200	0.155800	0.680100	-0.367529
N17	N	0.002700	0.076600	0.642800	0.042330
N18	N	0.362800	0.319900	0.844200	-0.367529
N19	N	0.497300	0.357200	0.923400	0.042330
N20	N	0.250000	0.119800	0.880200	-0.332947
O1	O	0.898700	0.859400	0.282000	-0.629969
O2	O	0.847500	0.744600	0.364800	-0.629969
O3	O	0.101300	0.282000	0.859400	-0.629969
O4	O	0.152500	0.364800	0.744600	-0.629969
O5	O	0.398700	0.140600	0.718000	-0.629969
O6	O	0.347500	0.255400	0.635200	-0.629969
O7	O	0.601300	0.718000	0.140600	-0.629969
O8	O	0.652500	0.635200	0.255400	-0.629969
O9	O	0.148700	0.218000	0.359400	-0.629969
O10	O	0.097500	0.135200	0.244600	-0.629969
O11	O	0.351300	0.640600	0.782000	-0.629969
O12	O	0.402500	0.755400	0.864800	-0.629969
O13	O	0.648700	0.782000	0.640600	-0.629969
O14	O	0.597500	0.864800	0.755400	-0.629969
O15	O	0.851300	0.359400	0.218000	-0.629969
O16	O	0.902500	0.244600	0.135200	-0.629969
