data_OFEHAK_clean_PM
_symmetry_space_group_name_H-M	'P1'
_cell_length_a	15.123000
_cell_length_b	17.481400
_cell_length_c	17.481400
_cell_angle_alpha	79.216699
_cell_angle_beta	64.370798
_cell_angle_gamma	64.370800
_symmetry_Int_Tables_number 1

loop_
_symmetry_equiv_pos_as_xyz
'x,y,z'

loop_
_atom_site_label
_atom_site_type_symbol
_atom_site_fract_x
_atom_site_fract_y
_atom_site_fract_z
_atom_site_charge
Cd1	Cd	0.127910	0.411840	0.933680	1.007698
Cd2	Cd	0.973430	0.088160	0.566320	1.007698
Cd3	Cd	0.061590	0.066320	0.911840	1.007698
Cd4	Cd	0.539750	0.433680	0.588160	1.007698
Cd5	Cd	0.872090	0.588160	0.066320	1.007698
Cd6	Cd	0.026570	0.911840	0.433680	1.007698
Cd7	Cd	0.938410	0.933680	0.088160	1.007698
Cd8	Cd	0.460250	0.566320	0.411840	1.007698
H1	H	0.787800	0.407300	0.018100	0.410818
H2	H	0.281800	0.079000	0.926600	0.103914
H3	H	0.461100	0.011600	0.840000	0.111296
H4	H	0.434200	0.206200	0.675800	0.111296
H5	H	0.255000	0.273600	0.762200	0.103914
H6	H	0.610400	0.018200	0.719200	0.121223
H7	H	0.584500	0.065200	0.641000	0.121223
H8	H	0.602200	0.111700	0.698300	0.121223
H9	H	0.713200	0.092700	0.481900	0.410818
H10	H	0.787400	0.421000	0.573400	0.103914
H11	H	0.812700	0.488400	0.660000	0.111296
H12	H	0.816200	0.293800	0.824200	0.111296
H13	H	0.790800	0.226400	0.737800	0.103914
H14	H	0.847800	0.481800	0.780800	0.121223
H15	H	0.790700	0.434800	0.859000	0.121223
H16	H	0.912200	0.388300	0.801700	0.121223
H17	H	0.805900	0.981900	0.907300	0.410818
H18	H	0.208400	0.073400	0.579000	0.103914
H19	H	0.301100	0.160000	0.511600	0.111296
H20	H	0.110000	0.324200	0.706200	0.111296
H21	H	0.017200	0.237800	0.773600	0.103914
H22	H	0.329600	0.280800	0.518200	0.121223
H23	H	0.225500	0.359000	0.565200	0.121223
H24	H	0.300500	0.301700	0.611700	0.121223
H25	H	0.195100	0.518100	0.592700	0.410818
H26	H	0.360800	0.426600	0.921000	0.103914
H27	H	0.472700	0.340000	0.988400	0.111296
H28	H	0.640400	0.175800	0.793800	0.111296
H29	H	0.528600	0.262200	0.726400	0.103914
H30	H	0.628600	0.219200	0.981800	0.121223
H31	H	0.649700	0.141000	0.934800	0.121223
H32	H	0.713900	0.198300	0.888300	0.121223
H33	H	0.212200	0.592700	0.981900	0.410818
H34	H	0.718200	0.921000	0.073400	0.103914
H35	H	0.538900	0.988400	0.160000	0.111296
H36	H	0.565800	0.793800	0.324200	0.111296
H37	H	0.745000	0.726400	0.237800	0.103914
H38	H	0.389600	0.981800	0.280800	0.121223
H39	H	0.415500	0.934800	0.359000	0.121223
H40	H	0.397800	0.888300	0.301700	0.121223
H41	H	0.286800	0.907300	0.518100	0.410818
H42	H	0.212600	0.579000	0.426600	0.103914
H43	H	0.187300	0.511600	0.340000	0.111296
H44	H	0.183800	0.706200	0.175800	0.111296
H45	H	0.209200	0.773600	0.262200	0.103914
H46	H	0.152200	0.518200	0.219200	0.121223
H47	H	0.209300	0.565200	0.141000	0.121223
H48	H	0.087800	0.611700	0.198300	0.121223
H49	H	0.194100	0.018100	0.092700	0.410818
H50	H	0.791600	0.926600	0.421000	0.103914
H51	H	0.698900	0.840000	0.488400	0.111296
H52	H	0.890000	0.675800	0.293800	0.111296
H53	H	0.982800	0.762200	0.226400	0.103914
H54	H	0.670400	0.719200	0.481800	0.121223
H55	H	0.774500	0.641000	0.434800	0.121223
H56	H	0.699500	0.698300	0.388300	0.121223
H57	H	0.804900	0.481900	0.407300	0.410818
H58	H	0.639200	0.573400	0.079000	0.103914
H59	H	0.527300	0.660000	0.011600	0.111296
H60	H	0.359600	0.824200	0.206200	0.111296
H61	H	0.471400	0.737800	0.273600	0.103914
H62	H	0.371400	0.780800	0.018200	0.121223
H63	H	0.350300	0.859000	0.065200	0.121223
H64	H	0.286100	0.801700	0.111700	0.121223
C1	C	0.902500	0.405100	0.015700	0.620550
C2	C	0.974400	0.322500	0.978300	-0.032256
C3	C	0.960500	0.251000	0.973000	0.031605
C4	C	0.860300	0.235900	0.999700	0.546089
C5	C	0.128700	0.222700	0.911100	0.407180
C6	C	0.250600	0.183000	0.853000	-0.076406
C7	C	0.312400	0.104500	0.876300	-0.041234
C8	C	0.419800	0.064100	0.824500	-0.161175
C9	C	0.465400	0.102200	0.749400	0.123889
C10	C	0.403700	0.180700	0.726100	-0.161175
C11	C	0.296300	0.221100	0.777900	-0.041234
C12	C	0.574000	0.072000	0.698000	-0.347465
C13	C	0.823300	0.094900	0.484300	0.620550
C14	C	0.775200	0.177500	0.521700	-0.032256
C15	C	0.684500	0.249000	0.527000	0.031605
C16	C	0.595900	0.264100	0.500300	0.546089
C17	C	0.762500	0.277300	0.588900	0.407180
C18	C	0.786600	0.317000	0.647000	-0.076406
C19	C	0.793200	0.395500	0.623700	-0.041234
C20	C	0.808400	0.435900	0.675500	-0.161175
C21	C	0.817000	0.397800	0.750600	0.123889
C22	C	0.810500	0.319300	0.773900	-0.161175
C23	C	0.795300	0.278900	0.722100	-0.041234
C24	C	0.844000	0.428000	0.802000	-0.347465
C25	C	0.918200	0.984300	0.905100	0.620550
C26	C	0.952700	0.021700	0.822500	-0.032256
C27	C	0.933500	0.027000	0.751000	0.031605
C28	C	0.860000	0.000300	0.735900	0.546089
C29	C	0.039800	0.088900	0.722700	0.407180
C30	C	0.103600	0.147000	0.683000	-0.076406
C31	C	0.188700	0.123700	0.604500	-0.041234
C32	C	0.244300	0.175500	0.564100	-0.161175
C33	C	0.214800	0.250600	0.602200	0.123889
C34	C	0.129800	0.273900	0.680700	-0.161175
C35	C	0.074200	0.222100	0.721100	-0.041234
C36	C	0.272000	0.302000	0.572000	-0.347465
C37	C	0.307600	0.515700	0.594900	0.620550
C38	C	0.296900	0.478300	0.677500	-0.032256
C39	C	0.211500	0.473000	0.749000	0.031605
C40	C	0.096200	0.499700	0.764100	0.546089
C41	C	0.351400	0.411100	0.777300	0.407180
C42	C	0.433600	0.353000	0.817000	-0.076406
C43	C	0.416900	0.376300	0.895500	-0.041234
C44	C	0.483900	0.324500	0.935900	-0.161175
C45	C	0.567600	0.249400	0.897800	0.123889
C46	C	0.584400	0.226100	0.819300	-0.161175
C47	C	0.517400	0.277900	0.778900	-0.041234
C48	C	0.646000	0.198000	0.928000	-0.347465
C49	C	0.097500	0.594900	0.984300	0.620550
C50	C	0.025600	0.677500	0.021700	-0.032256
C51	C	0.039500	0.749000	0.027000	0.031605
C52	C	0.139700	0.764100	0.000300	0.546089
C53	C	0.871300	0.777300	0.088900	0.407180
C54	C	0.749400	0.817000	0.147000	-0.076406
C55	C	0.687600	0.895500	0.123700	-0.041234
C56	C	0.580200	0.935900	0.175500	-0.161175
C57	C	0.534600	0.897800	0.250600	0.123889
C58	C	0.596300	0.819300	0.273900	-0.161175
C59	C	0.703700	0.778900	0.222100	-0.041234
C60	C	0.426000	0.928000	0.302000	-0.347465
C61	C	0.176700	0.905100	0.515700	0.620550
C62	C	0.224800	0.822500	0.478300	-0.032256
C63	C	0.315500	0.751000	0.473000	0.031605
C64	C	0.404100	0.735900	0.499700	0.546089
C65	C	0.237500	0.722700	0.411100	0.407180
C66	C	0.213400	0.683000	0.353000	-0.076406
C67	C	0.206800	0.604500	0.376300	-0.041234
C68	C	0.191600	0.564100	0.324500	-0.161175
C69	C	0.183000	0.602200	0.249400	0.123889
C70	C	0.189500	0.680700	0.226100	-0.161175
C71	C	0.204700	0.721100	0.277900	-0.041234
C72	C	0.156000	0.572000	0.198000	-0.347465
C73	C	0.081800	0.015700	0.094900	0.620550
C74	C	0.047300	0.978300	0.177500	-0.032256
C75	C	0.066500	0.973000	0.249000	0.031605
C76	C	0.140000	0.999700	0.264100	0.546089
C77	C	0.960200	0.911100	0.277300	0.407180
C78	C	0.896400	0.853000	0.317000	-0.076406
C79	C	0.811300	0.876300	0.395500	-0.041234
C80	C	0.755700	0.824500	0.435900	-0.161175
C81	C	0.785200	0.749400	0.397800	0.123889
C82	C	0.870200	0.726100	0.319300	-0.161175
C83	C	0.925800	0.777900	0.278900	-0.041234
C84	C	0.728000	0.698000	0.428000	-0.347465
C85	C	0.692400	0.484300	0.405100	0.620550
C86	C	0.703100	0.521700	0.322500	-0.032256
C87	C	0.788500	0.527000	0.251000	0.031605
C88	C	0.903800	0.500300	0.235900	0.546089
C89	C	0.648600	0.588900	0.222700	0.407180
C90	C	0.566400	0.647000	0.183000	-0.076406
C91	C	0.583100	0.623700	0.104500	-0.041234
C92	C	0.516100	0.675500	0.064100	-0.161175
C93	C	0.432400	0.750600	0.102200	0.123889
C94	C	0.415600	0.773900	0.180700	-0.161175
C95	C	0.482600	0.722100	0.221100	-0.041234
C96	C	0.354000	0.802000	0.072000	-0.347465
N1	N	0.081700	0.305200	0.937000	-0.452901
N2	N	0.057400	0.189000	0.928000	-0.466323
N3	N	0.823900	0.194800	0.563000	-0.452901
N4	N	0.674400	0.311000	0.572000	-0.466323
N5	N	0.018700	0.063000	0.805200	-0.452901
N6	N	0.985400	0.072000	0.689000	-0.466323
N7	N	0.386900	0.437000	0.694800	-0.452901
N8	N	0.246400	0.428000	0.811000	-0.466323
N9	N	0.918300	0.694800	0.063000	-0.452901
N10	N	0.942600	0.811000	0.072000	-0.466323
N11	N	0.176100	0.805200	0.437000	-0.452901
N12	N	0.325600	0.689000	0.428000	-0.466323
N13	N	0.981300	0.937000	0.194800	-0.452901
N14	N	0.014600	0.928000	0.311000	-0.466323
N15	N	0.613100	0.563000	0.305200	-0.452901
N16	N	0.753600	0.572000	0.189000	-0.466323
O1	O	0.940700	0.453000	0.018800	-0.612238
O2	O	0.805200	0.421800	0.049600	-0.455572
O3	O	0.772500	0.297400	0.038400	-0.546970
O4	O	0.870400	0.166600	0.985600	-0.546970
O5	O	0.912500	0.047000	0.481200	-0.612238
O6	O	0.776600	0.078200	0.450400	-0.455572
O7	O	0.608300	0.202600	0.461600	-0.546970
O8	O	0.522600	0.333400	0.514400	-0.546970
O9	O	0.959500	0.981200	0.953000	-0.612238
O10	O	0.854800	0.950400	0.921800	-0.455572
O11	O	0.810900	0.961600	0.797400	-0.546970
O12	O	0.856000	0.014400	0.666600	-0.546970
O13	O	0.393700	0.518800	0.547000	-0.612238
O14	O	0.227000	0.549600	0.578200	-0.455572
O15	O	0.069900	0.538400	0.702600	-0.546970
O16	O	0.037000	0.485600	0.833400	-0.546970
O17	O	0.059300	0.547000	0.981200	-0.612238
O18	O	0.194800	0.578200	0.950400	-0.455572
O19	O	0.227500	0.702600	0.961600	-0.546970
O20	O	0.129600	0.833400	0.014400	-0.546970
O21	O	0.087500	0.953000	0.518800	-0.612238
O22	O	0.223400	0.921800	0.549600	-0.455572
O23	O	0.391700	0.797400	0.538400	-0.546970
O24	O	0.477400	0.666600	0.485600	-0.546970
O25	O	0.040500	0.018800	0.047000	-0.612238
O26	O	0.145200	0.049600	0.078200	-0.455572
O27	O	0.189100	0.038400	0.202600	-0.546970
O28	O	0.144000	0.985600	0.333400	-0.546970
O29	O	0.606300	0.481200	0.453000	-0.612238
O30	O	0.773000	0.450400	0.421800	-0.455572
O31	O	0.930100	0.461600	0.297400	-0.546970
O32	O	0.963000	0.514400	0.166600	-0.546970
