data_OFERUN04_PM
_symmetry_space_group_name_H-M	'P1'
_cell_length_a	17.054400
_cell_length_b	17.054400
_cell_length_c	17.054400
_cell_angle_alpha	90.000000
_cell_angle_beta	90.000000
_cell_angle_gamma	90.000000
_symmetry_Int_Tables_number 1

loop_
_symmetry_equiv_pos_as_xyz
'x,y,z'

loop_
_atom_site_label
_atom_site_type_symbol
_atom_site_fract_x
_atom_site_fract_y
_atom_site_fract_z
_atom_site_charge
Zn1	Zn	0.000000	0.500000	0.750000	0.753110
Zn2	Zn	0.000000	0.500000	0.250000	0.753110
Zn3	Zn	0.500000	0.000000	0.250000	0.753110
Zn4	Zn	0.500000	0.000000	0.750000	0.753110
Zn5	Zn	0.500000	0.750000	0.000000	0.753110
Zn6	Zn	0.500000	0.250000	0.000000	0.753110
Zn7	Zn	0.750000	0.500000	0.000000	0.753110
Zn8	Zn	0.250000	0.500000	0.000000	0.753110
Zn9	Zn	0.750000	0.000000	0.500000	0.753110
Zn10	Zn	0.250000	0.000000	0.500000	0.753110
Zn11	Zn	0.000000	0.750000	0.500000	0.753110
Zn12	Zn	0.000000	0.250000	0.500000	0.753110
H1	H	0.125400	0.362400	0.774900	0.101202
H2	H	0.125400	0.637600	0.225100	0.101202
H3	H	0.874600	0.637600	0.774900	0.101202
H4	H	0.874600	0.362400	0.225100	0.101202
H5	H	0.362400	0.874600	0.225100	0.101202
H6	H	0.637600	0.874600	0.774900	0.101202
H7	H	0.637600	0.125400	0.225100	0.101202
H8	H	0.362400	0.125400	0.774900	0.101202
H9	H	0.362400	0.774900	0.125400	0.101202
H10	H	0.637600	0.225100	0.125400	0.101202
H11	H	0.362400	0.225100	0.874600	0.101202
H12	H	0.637600	0.774900	0.874600	0.101202
H13	H	0.774900	0.637600	0.874600	0.101202
H14	H	0.774900	0.362400	0.125400	0.101202
H15	H	0.225100	0.362400	0.874600	0.101202
H16	H	0.225100	0.637600	0.125400	0.101202
H17	H	0.774900	0.125400	0.362400	0.101202
H18	H	0.225100	0.125400	0.637600	0.101202
H19	H	0.225100	0.874600	0.362400	0.101202
H20	H	0.774900	0.874600	0.637600	0.101202
H21	H	0.125400	0.774900	0.362400	0.101202
H22	H	0.125400	0.225100	0.637600	0.101202
H23	H	0.874600	0.774900	0.637600	0.101202
H24	H	0.874600	0.225100	0.362400	0.101202
H25	H	0.625400	0.862400	0.274900	0.101202
H26	H	0.625400	0.137600	0.725100	0.101202
H27	H	0.374600	0.137600	0.274900	0.101202
H28	H	0.374600	0.862400	0.725100	0.101202
H29	H	0.862400	0.374600	0.725100	0.101202
H30	H	0.137600	0.374600	0.274900	0.101202
H31	H	0.137600	0.625400	0.725100	0.101202
H32	H	0.862400	0.625400	0.274900	0.101202
H33	H	0.862400	0.274900	0.625400	0.101202
H34	H	0.137600	0.725100	0.625400	0.101202
H35	H	0.862400	0.725100	0.374600	0.101202
H36	H	0.137600	0.274900	0.374600	0.101202
H37	H	0.274900	0.137600	0.374600	0.101202
H38	H	0.274900	0.862400	0.625400	0.101202
H39	H	0.725100	0.862400	0.374600	0.101202
H40	H	0.725100	0.137600	0.625400	0.101202
H41	H	0.274900	0.625400	0.862400	0.101202
H42	H	0.725100	0.625400	0.137600	0.101202
H43	H	0.725100	0.374600	0.862400	0.101202
H44	H	0.274900	0.374600	0.137600	0.101202
H45	H	0.625400	0.274900	0.862400	0.101202
H46	H	0.625400	0.725100	0.137600	0.101202
H47	H	0.374600	0.274900	0.137600	0.101202
H48	H	0.374600	0.725100	0.862400	0.101202
H49	H	0.037400	0.589000	0.898700	0.137407
H50	H	0.037400	0.411000	0.101300	0.137407
H51	H	0.962600	0.411000	0.898700	0.137407
H52	H	0.962600	0.589000	0.101300	0.137407
H53	H	0.589000	0.962600	0.101300	0.137407
H54	H	0.411000	0.962600	0.898700	0.137407
H55	H	0.411000	0.037400	0.101300	0.137407
H56	H	0.589000	0.037400	0.898700	0.137407
H57	H	0.589000	0.898700	0.037400	0.137407
H58	H	0.411000	0.101300	0.037400	0.137407
H59	H	0.589000	0.101300	0.962600	0.137407
H60	H	0.411000	0.898700	0.962600	0.137407
H61	H	0.898700	0.411000	0.962600	0.137407
H62	H	0.898700	0.589000	0.037400	0.137407
H63	H	0.101300	0.589000	0.962600	0.137407
H64	H	0.101300	0.411000	0.037400	0.137407
H65	H	0.898700	0.037400	0.589000	0.137407
H66	H	0.101300	0.037400	0.411000	0.137407
H67	H	0.101300	0.962600	0.589000	0.137407
H68	H	0.898700	0.962600	0.411000	0.137407
H69	H	0.037400	0.898700	0.589000	0.137407
H70	H	0.037400	0.101300	0.411000	0.137407
H71	H	0.962600	0.898700	0.411000	0.137407
H72	H	0.962600	0.101300	0.589000	0.137407
H73	H	0.537400	0.089000	0.398700	0.137407
H74	H	0.537400	0.911000	0.601300	0.137407
H75	H	0.462600	0.911000	0.398700	0.137407
H76	H	0.462600	0.089000	0.601300	0.137407
H77	H	0.089000	0.462600	0.601300	0.137407
H78	H	0.911000	0.462600	0.398700	0.137407
H79	H	0.911000	0.537400	0.601300	0.137407
H80	H	0.089000	0.537400	0.398700	0.137407
H81	H	0.089000	0.398700	0.537400	0.137407
H82	H	0.911000	0.601300	0.537400	0.137407
H83	H	0.089000	0.601300	0.462600	0.137407
H84	H	0.911000	0.398700	0.462600	0.137407
H85	H	0.398700	0.911000	0.462600	0.137407
H86	H	0.398700	0.089000	0.537400	0.137407
H87	H	0.601300	0.089000	0.462600	0.137407
H88	H	0.601300	0.911000	0.537400	0.137407
H89	H	0.398700	0.537400	0.089000	0.137407
H90	H	0.601300	0.537400	0.911000	0.137407
H91	H	0.601300	0.462600	0.089000	0.137407
H92	H	0.398700	0.462600	0.911000	0.137407
H93	H	0.537400	0.398700	0.089000	0.137407
H94	H	0.537400	0.601300	0.911000	0.137407
H95	H	0.462600	0.398700	0.911000	0.137407
H96	H	0.462600	0.601300	0.089000	0.137407
H97	H	0.119200	0.627500	0.880800	0.137407
H98	H	0.119200	0.372500	0.119200	0.137407
H99	H	0.880800	0.372500	0.880800	0.137407
H100	H	0.880800	0.627500	0.119200	0.137407
H101	H	0.627500	0.880800	0.119200	0.137407
H102	H	0.372500	0.880800	0.880800	0.137407
H103	H	0.372500	0.119200	0.119200	0.137407
H104	H	0.627500	0.119200	0.880800	0.137407
H105	H	0.880800	0.119200	0.627500	0.137407
H106	H	0.119200	0.119200	0.372500	0.137407
H107	H	0.119200	0.880800	0.627500	0.137407
H108	H	0.880800	0.880800	0.372500	0.137407
H109	H	0.619200	0.127500	0.380800	0.137407
H110	H	0.619200	0.872500	0.619200	0.137407
H111	H	0.380800	0.872500	0.380800	0.137407
H112	H	0.380800	0.127500	0.619200	0.137407
H113	H	0.127500	0.380800	0.619200	0.137407
H114	H	0.872500	0.380800	0.380800	0.137407
H115	H	0.872500	0.619200	0.619200	0.137407
H116	H	0.127500	0.619200	0.380800	0.137407
H117	H	0.380800	0.619200	0.127500	0.137407
H118	H	0.619200	0.619200	0.872500	0.137407
H119	H	0.619200	0.380800	0.127500	0.137407
H120	H	0.380800	0.380800	0.872500	0.137407
C1	C	0.133700	0.402000	0.811400	-0.037897
C2	C	0.133700	0.598000	0.188600	-0.037897
C3	C	0.866300	0.598000	0.811400	-0.037897
C4	C	0.866300	0.402000	0.188600	-0.037897
C5	C	0.402000	0.866300	0.188600	-0.037897
C6	C	0.598000	0.866300	0.811400	-0.037897
C7	C	0.598000	0.133700	0.188600	-0.037897
C8	C	0.402000	0.133700	0.811400	-0.037897
C9	C	0.402000	0.811400	0.133700	-0.037897
C10	C	0.598000	0.188600	0.133700	-0.037897
C11	C	0.402000	0.188600	0.866300	-0.037897
C12	C	0.598000	0.811400	0.866300	-0.037897
C13	C	0.811400	0.598000	0.866300	-0.037897
C14	C	0.811400	0.402000	0.133700	-0.037897
C15	C	0.188600	0.402000	0.866300	-0.037897
C16	C	0.188600	0.598000	0.133700	-0.037897
C17	C	0.811400	0.133700	0.402000	-0.037897
C18	C	0.188600	0.133700	0.598000	-0.037897
C19	C	0.188600	0.866300	0.402000	-0.037897
C20	C	0.811400	0.866300	0.598000	-0.037897
C21	C	0.133700	0.811400	0.402000	-0.037897
C22	C	0.133700	0.188600	0.598000	-0.037897
C23	C	0.866300	0.811400	0.598000	-0.037897
C24	C	0.866300	0.188600	0.402000	-0.037897
C25	C	0.633700	0.902000	0.311400	-0.037897
C26	C	0.633700	0.098000	0.688600	-0.037897
C27	C	0.366300	0.098000	0.311400	-0.037897
C28	C	0.366300	0.902000	0.688600	-0.037897
C29	C	0.902000	0.366300	0.688600	-0.037897
C30	C	0.098000	0.366300	0.311400	-0.037897
C31	C	0.098000	0.633700	0.688600	-0.037897
C32	C	0.902000	0.633700	0.311400	-0.037897
C33	C	0.902000	0.311400	0.633700	-0.037897
C34	C	0.098000	0.688600	0.633700	-0.037897
C35	C	0.902000	0.688600	0.366300	-0.037897
C36	C	0.098000	0.311400	0.366300	-0.037897
C37	C	0.311400	0.098000	0.366300	-0.037897
C38	C	0.311400	0.902000	0.633700	-0.037897
C39	C	0.688600	0.902000	0.366300	-0.037897
C40	C	0.688600	0.098000	0.633700	-0.037897
C41	C	0.311400	0.633700	0.902000	-0.037897
C42	C	0.688600	0.633700	0.098000	-0.037897
C43	C	0.688600	0.366300	0.902000	-0.037897
C44	C	0.311400	0.366300	0.098000	-0.037897
C45	C	0.633700	0.311400	0.902000	-0.037897
C46	C	0.633700	0.688600	0.098000	-0.037897
C47	C	0.366300	0.311400	0.098000	-0.037897
C48	C	0.366300	0.688600	0.902000	-0.037897
C49	C	0.122530	0.507200	0.877470	0.422059
C50	C	0.122530	0.492800	0.122530	0.422059
C51	C	0.877470	0.492800	0.877470	0.422059
C52	C	0.877470	0.507200	0.122530	0.422059
C53	C	0.507200	0.877470	0.122530	0.422059
C54	C	0.492800	0.877470	0.877470	0.422059
C55	C	0.492800	0.122530	0.122530	0.422059
C56	C	0.507200	0.122530	0.877470	0.422059
C57	C	0.877470	0.122530	0.507200	0.422059
C58	C	0.122530	0.122530	0.492800	0.422059
C59	C	0.122530	0.877470	0.507200	0.422059
C60	C	0.877470	0.877470	0.492800	0.422059
C61	C	0.622530	0.007200	0.377470	0.422059
C62	C	0.622530	0.992800	0.622530	0.422059
C63	C	0.377470	0.992800	0.377470	0.422059
C64	C	0.377470	0.007200	0.622530	0.422059
C65	C	0.007200	0.377470	0.622530	0.422059
C66	C	0.992800	0.377470	0.377470	0.422059
C67	C	0.992800	0.622530	0.622530	0.422059
C68	C	0.007200	0.622530	0.377470	0.422059
C69	C	0.377470	0.622530	0.007200	0.422059
C70	C	0.622530	0.622530	0.992800	0.422059
C71	C	0.622530	0.377470	0.007200	0.422059
C72	C	0.377470	0.377470	0.992800	0.422059
C73	C	0.092800	0.585400	0.907200	-0.450624
C74	C	0.092800	0.414600	0.092800	-0.450624
C75	C	0.907200	0.414600	0.907200	-0.450624
C76	C	0.907200	0.585400	0.092800	-0.450624
C77	C	0.585400	0.907200	0.092800	-0.450624
C78	C	0.414600	0.907200	0.907200	-0.450624
C79	C	0.414600	0.092800	0.092800	-0.450624
C80	C	0.585400	0.092800	0.907200	-0.450624
C81	C	0.907200	0.092800	0.585400	-0.450624
C82	C	0.092800	0.092800	0.414600	-0.450624
C83	C	0.092800	0.907200	0.585400	-0.450624
C84	C	0.907200	0.907200	0.414600	-0.450624
C85	C	0.592800	0.085400	0.407200	-0.450624
C86	C	0.592800	0.914600	0.592800	-0.450624
C87	C	0.407200	0.914600	0.407200	-0.450624
C88	C	0.407200	0.085400	0.592800	-0.450624
C89	C	0.085400	0.407200	0.592800	-0.450624
C90	C	0.914600	0.407200	0.407200	-0.450624
C91	C	0.914600	0.592800	0.592800	-0.450624
C92	C	0.085400	0.592800	0.407200	-0.450624
C93	C	0.407200	0.592800	0.085400	-0.450624
C94	C	0.592800	0.592800	0.914600	-0.450624
C95	C	0.592800	0.407200	0.085400	-0.450624
C96	C	0.407200	0.407200	0.914600	-0.450624
N1	N	0.090400	0.470850	0.817150	-0.443411
N2	N	0.090400	0.529150	0.182850	-0.443411
N3	N	0.909600	0.529150	0.817150	-0.443411
N4	N	0.909600	0.470850	0.182850	-0.443411
N5	N	0.470850	0.909600	0.182850	-0.443411
N6	N	0.529150	0.909600	0.817150	-0.443411
N7	N	0.529150	0.090400	0.182850	-0.443411
N8	N	0.470850	0.090400	0.817150	-0.443411
N9	N	0.470850	0.817150	0.090400	-0.443411
N10	N	0.529150	0.182850	0.090400	-0.443411
N11	N	0.470850	0.182850	0.909600	-0.443411
N12	N	0.529150	0.817150	0.909600	-0.443411
N13	N	0.817150	0.529150	0.909600	-0.443411
N14	N	0.817150	0.470850	0.090400	-0.443411
N15	N	0.182850	0.470850	0.909600	-0.443411
N16	N	0.182850	0.529150	0.090400	-0.443411
N17	N	0.817150	0.090400	0.470850	-0.443411
N18	N	0.182850	0.090400	0.529150	-0.443411
N19	N	0.182850	0.909600	0.470850	-0.443411
N20	N	0.817150	0.909600	0.529150	-0.443411
N21	N	0.090400	0.817150	0.470850	-0.443411
N22	N	0.090400	0.182850	0.529150	-0.443411
N23	N	0.909600	0.817150	0.529150	-0.443411
N24	N	0.909600	0.182850	0.470850	-0.443411
N25	N	0.590400	0.970850	0.317150	-0.443411
N26	N	0.590400	0.029150	0.682850	-0.443411
N27	N	0.409600	0.029150	0.317150	-0.443411
N28	N	0.409600	0.970850	0.682850	-0.443411
N29	N	0.970850	0.409600	0.682850	-0.443411
N30	N	0.029150	0.409600	0.317150	-0.443411
N31	N	0.029150	0.590400	0.682850	-0.443411
N32	N	0.970850	0.590400	0.317150	-0.443411
N33	N	0.970850	0.317150	0.590400	-0.443411
N34	N	0.029150	0.682850	0.590400	-0.443411
N35	N	0.970850	0.682850	0.409600	-0.443411
N36	N	0.029150	0.317150	0.409600	-0.443411
N37	N	0.317150	0.029150	0.409600	-0.443411
N38	N	0.317150	0.970850	0.590400	-0.443411
N39	N	0.682850	0.970850	0.409600	-0.443411
N40	N	0.682850	0.029150	0.590400	-0.443411
N41	N	0.317150	0.590400	0.970850	-0.443411
N42	N	0.682850	0.590400	0.029150	-0.443411
N43	N	0.682850	0.409600	0.970850	-0.443411
N44	N	0.317150	0.409600	0.029150	-0.443411
N45	N	0.590400	0.317150	0.970850	-0.443411
N46	N	0.590400	0.682850	0.029150	-0.443411
N47	N	0.409600	0.317150	0.029150	-0.443411
N48	N	0.409600	0.682850	0.970850	-0.443411
