data_OFUYUL_clean_PM
_symmetry_space_group_name_H-M	'P1'
_cell_length_a	12.925600
_cell_length_b	14.555000
_cell_length_c	16.784000
_cell_angle_alpha	108.565001
_cell_angle_beta	90.000000
_cell_angle_gamma	90.000000
_symmetry_Int_Tables_number 1

loop_
_symmetry_equiv_pos_as_xyz
'x,y,z'

loop_
_atom_site_label
_atom_site_type_symbol
_atom_site_fract_x
_atom_site_fract_y
_atom_site_fract_z
_atom_site_charge
Zn1	Zn	0.513780	0.819720	0.817900	1.106708
Zn2	Zn	0.447070	0.099250	0.345510	1.112599
Zn3	Zn	0.013780	0.680280	0.182100	1.106708
Zn4	Zn	0.947070	0.400750	0.654490	1.112599
Zn5	Zn	0.486220	0.180280	0.182100	1.106708
Zn6	Zn	0.552930	0.900750	0.654490	1.112599
Zn7	Zn	0.986220	0.319720	0.817900	1.106708
Zn8	Zn	0.052930	0.599250	0.345510	1.112599
H1	H	0.330800	0.716700	0.501500	0.144822
H2	H	0.074600	0.564400	0.509100	0.144822
H3	H	0.261900	0.648200	0.710400	0.118879
H4	H	0.237500	0.780100	0.042800	0.118879
H5	H	0.272800	0.984300	0.267600	0.147659
H6	H	0.440500	0.996400	0.069200	0.147659
H7	H	0.830800	0.783300	0.498500	0.144822
H8	H	0.574600	0.935600	0.490900	0.144822
H9	H	0.761900	0.851800	0.289600	0.118879
H10	H	0.737500	0.719900	0.957200	0.118879
H11	H	0.772800	0.515700	0.732400	0.147659
H12	H	0.940500	0.503600	0.930800	0.147659
H13	H	0.669200	0.283300	0.498500	0.144822
H14	H	0.925400	0.435600	0.490900	0.144822
H15	H	0.738100	0.351800	0.289600	0.118879
H16	H	0.762500	0.219900	0.957200	0.118879
H17	H	0.727200	0.015700	0.732400	0.147659
H18	H	0.559500	0.003600	0.930800	0.147659
H19	H	0.169200	0.216700	0.501500	0.144822
H20	H	0.425400	0.064400	0.509100	0.144822
H21	H	0.238100	0.148200	0.710400	0.118879
H22	H	0.262500	0.280100	0.042800	0.118879
H23	H	0.227200	0.484300	0.267600	0.147659
H24	H	0.059500	0.496400	0.069200	0.147659
C1	C	0.400500	0.750600	0.657100	0.723562
C2	C	0.309200	0.694100	0.613500	-0.080283
C3	C	0.286000	0.688600	0.530500	-0.151780
C4	C	0.196800	0.641700	0.490500	0.360298
C5	C	0.134000	0.596600	0.534700	-0.152692
C6	C	0.157400	0.598300	0.615400	-0.057141
C7	C	0.094300	0.541300	0.659300	0.658586
C8	C	0.245700	0.647100	0.656100	-0.015339
C9	C	0.378200	0.835700	0.952600	0.658586
C10	C	0.344300	0.882500	0.042300	-0.049954
C11	C	0.269400	0.836300	0.076400	-0.018817
C12	C	0.243200	0.874900	0.160500	-0.049954
C13	C	0.162300	0.824400	0.196600	0.658586
C14	C	0.291100	0.958800	0.211200	-0.168046
C15	C	0.366300	0.004700	0.177700	0.366429
C16	C	0.391400	0.965700	0.092400	-0.168046
C17	C	0.900500	0.749400	0.342900	0.723562
C18	C	0.809200	0.805900	0.386500	-0.080283
C19	C	0.786000	0.811400	0.469500	-0.151780
C20	C	0.696800	0.858300	0.509500	0.360298
C21	C	0.634000	0.903400	0.465300	-0.152692
C22	C	0.657400	0.901700	0.384600	-0.057141
C23	C	0.594300	0.958700	0.340700	0.658586
C24	C	0.745700	0.852900	0.343900	-0.015339
C25	C	0.878200	0.664300	0.047400	0.658586
C26	C	0.844300	0.617500	0.957700	-0.049954
C27	C	0.769400	0.663700	0.923600	-0.018817
C28	C	0.743200	0.625100	0.839500	-0.049954
C29	C	0.662300	0.675600	0.803400	0.658586
C30	C	0.791100	0.541200	0.788800	-0.168046
C31	C	0.866300	0.495300	0.822300	0.366429
C32	C	0.891400	0.534300	0.907600	-0.168046
C33	C	0.599500	0.249400	0.342900	0.723562
C34	C	0.690800	0.305900	0.386500	-0.080283
C35	C	0.714000	0.311400	0.469500	-0.151780
C36	C	0.803200	0.358300	0.509500	0.360298
C37	C	0.866000	0.403400	0.465300	-0.152692
C38	C	0.842600	0.401700	0.384600	-0.057141
C39	C	0.905700	0.458700	0.340700	0.658586
C40	C	0.754300	0.352900	0.343900	-0.015339
C41	C	0.621800	0.164300	0.047400	0.658586
C42	C	0.655700	0.117500	0.957700	-0.049954
C43	C	0.730600	0.163700	0.923600	-0.018817
C44	C	0.756800	0.125100	0.839500	-0.049954
C45	C	0.837700	0.175600	0.803400	0.658586
C46	C	0.708900	0.041200	0.788800	-0.168046
C47	C	0.633700	0.995300	0.822300	0.366429
C48	C	0.608600	0.034300	0.907600	-0.168046
C49	C	0.099500	0.250600	0.657100	0.723562
C50	C	0.190800	0.194100	0.613500	-0.080283
C51	C	0.214000	0.188600	0.530500	-0.151780
C52	C	0.303200	0.141700	0.490500	0.360298
C53	C	0.366000	0.096600	0.534700	-0.152692
C54	C	0.342600	0.098300	0.615400	-0.057141
C55	C	0.405700	0.041300	0.659300	0.658586
C56	C	0.254300	0.147100	0.656100	-0.015339
C57	C	0.121800	0.335700	0.952600	0.658586
C58	C	0.155700	0.382500	0.042300	-0.049954
C59	C	0.230600	0.336300	0.076400	-0.018817
C60	C	0.256800	0.374900	0.160500	-0.049954
C61	C	0.337700	0.324400	0.196600	0.658586
C62	C	0.208900	0.458800	0.211200	-0.168046
C63	C	0.133700	0.504700	0.177700	0.366429
C64	C	0.108600	0.465700	0.092400	-0.168046
O1	O	0.457800	0.789000	0.616000	-0.577322
O2	O	0.414100	0.755300	0.731800	-0.577234
O3	O	0.177100	0.641600	0.411900	-0.542201
O4	O	0.011800	0.504100	0.622200	-0.575267
O5	O	0.123900	0.532200	0.725700	-0.504926
O6	O	0.442000	0.882900	0.923600	-0.575338
O7	O	0.346400	0.754200	0.911500	-0.504926
O8	O	0.117700	0.753000	0.145000	-0.575338
O9	O	0.140500	0.854200	0.271200	-0.504926
O10	O	0.415200	0.085800	0.227500	-0.618544
O11	O	0.957800	0.711000	0.384000	-0.577322
O12	O	0.914100	0.744700	0.268200	-0.577234
O13	O	0.677100	0.858400	0.588100	-0.542201
O14	O	0.511800	0.995900	0.377800	-0.575267
O15	O	0.623900	0.967800	0.274300	-0.504926
O16	O	0.942000	0.617100	0.076400	-0.575338
O17	O	0.846400	0.745800	0.088500	-0.504926
O18	O	0.617700	0.747000	0.855000	-0.575338
O19	O	0.640500	0.645800	0.728800	-0.504926
O20	O	0.915200	0.414200	0.772500	-0.618544
O21	O	0.542200	0.211000	0.384000	-0.577322
O22	O	0.585900	0.244700	0.268200	-0.577234
O23	O	0.822900	0.358400	0.588100	-0.542201
O24	O	0.988200	0.495900	0.377800	-0.575267
O25	O	0.876100	0.467800	0.274300	-0.504926
O26	O	0.558000	0.117100	0.076400	-0.575338
O27	O	0.653600	0.245800	0.088500	-0.504926
O28	O	0.882300	0.247000	0.855000	-0.575338
O29	O	0.859500	0.145800	0.728800	-0.504926
O30	O	0.584800	0.914200	0.772500	-0.618544
O31	O	0.042200	0.289000	0.616000	-0.577322
O32	O	0.085900	0.255300	0.731800	-0.577234
O33	O	0.322900	0.141600	0.411900	-0.542201
O34	O	0.488200	0.004100	0.622200	-0.575267
O35	O	0.376100	0.032200	0.725700	-0.504926
O36	O	0.058000	0.382900	0.923600	-0.575338
O37	O	0.153600	0.254200	0.911500	-0.504926
O38	O	0.382300	0.253000	0.145000	-0.575338
O39	O	0.359500	0.354200	0.271200	-0.504926
O40	O	0.084800	0.585800	0.227500	-0.618544
