data_OHAQEU_clean_PM
_symmetry_space_group_name_H-M	'P1'
_cell_length_a	10.754989
_cell_length_b	10.755100
_cell_length_c	10.755100
_cell_angle_alpha	104.041000
_cell_angle_beta	112.252606
_cell_angle_gamma	112.252603
_symmetry_Int_Tables_number 1

loop_
_symmetry_equiv_pos_as_xyz
'x,y,z'

loop_
_atom_site_label
_atom_site_type_symbol
_atom_site_fract_x
_atom_site_fract_y
_atom_site_fract_z
_atom_site_charge
Nb1	Nb	0.000000	0.750360	0.750360	0.304799
Nb2	Nb	0.000000	0.249640	0.249640	0.304799
Fe1	Fe	0.492020	0.801150	0.690870	1.062566
Fe2	Fe	0.507980	0.198850	0.309130	1.062566
Fe3	Fe	0.889720	0.690870	0.198850	1.062566
Fe4	Fe	0.110280	0.309130	0.801150	1.062566
C1	C	0.780800	0.756990	0.704390	0.086135
C2	C	0.800010	0.507780	0.609590	0.086135
C3	C	0.219200	0.923590	0.976190	0.086135
C4	C	0.199990	0.809580	0.707770	0.086135
C5	C	0.947400	0.704390	0.923590	0.086135
C6	C	0.101810	0.609590	0.809580	0.086135
C7	C	0.052600	0.976190	0.756990	0.086135
C8	C	0.898190	0.707770	0.507780	0.086135
C9	C	0.219200	0.243010	0.295610	0.086135
C10	C	0.199990	0.492220	0.390410	0.086135
C11	C	0.780800	0.076410	0.023810	0.086135
C12	C	0.800010	0.190420	0.292230	0.086135
C13	C	0.052600	0.295610	0.076410	0.086135
C14	C	0.898190	0.390410	0.190420	0.086135
C15	C	0.947400	0.023810	0.243010	0.086135
C16	C	0.101810	0.292230	0.492220	0.086135
N1	N	0.668070	0.756310	0.684580	-0.389877
N2	N	0.693930	0.387500	0.529150	-0.389877
N3	N	0.331930	0.016510	0.088240	-0.389877
N4	N	0.306070	0.835220	0.693570	-0.389877
N5	N	0.928270	0.684580	0.016510	-0.389877
N6	N	0.141650	0.529150	0.835220	-0.389877
N7	N	0.071730	0.088240	0.756310	-0.389877
N8	N	0.858350	0.693570	0.387500	-0.389877
N9	N	0.331930	0.243690	0.315420	-0.389877
N10	N	0.306070	0.612500	0.470850	-0.389877
N11	N	0.668070	0.983490	0.911760	-0.389877
N12	N	0.693930	0.164780	0.306430	-0.389877
N13	N	0.071730	0.315420	0.983490	-0.389877
N14	N	0.858350	0.470850	0.164780	-0.389877
N15	N	0.928270	0.911760	0.243690	-0.389877
N16	N	0.141650	0.306430	0.612500	-0.389877
