data_PAPPED_clean_PM
_symmetry_space_group_name_H-M	'P1'
_cell_length_a	12.929200
_cell_length_b	12.929200
_cell_length_c	20.103900
_cell_angle_alpha	90.000000
_cell_angle_beta	90.000000
_cell_angle_gamma	119.999999
_symmetry_Int_Tables_number 1

loop_
_symmetry_equiv_pos_as_xyz
'x,y,z'

loop_
_atom_site_label
_atom_site_type_symbol
_atom_site_fract_x
_atom_site_fract_y
_atom_site_fract_z
_atom_site_charge
Cu1	Cu	0.620470	0.000000	0.000000	0.337946
Cu2	Cu	0.379530	0.379530	0.333330	0.337946
Cu3	Cu	0.000000	0.620470	0.666670	0.337946
H1	H	0.871400	0.100100	0.946500	0.069567
H2	H	0.959100	0.088000	0.849300	0.114893
H3	H	0.846600	0.945100	0.770200	0.107449
H4	H	0.568700	0.821700	0.894400	0.101443
H5	H	0.542300	0.737500	0.792700	0.275368
H6	H	0.472500	0.640500	0.691600	0.072432
H7	H	0.478500	0.526100	0.780500	0.088141
H8	H	0.565500	0.498100	0.740500	0.088141
H9	H	0.406300	0.394400	0.660500	0.037031
H10	H	0.213000	0.330600	0.698200	0.101130
H11	H	0.285500	0.469500	0.688700	0.101130
H12	H	0.265900	0.414400	0.760200	0.101130
H13	H	0.375900	0.296600	0.788900	0.101130
H14	H	0.447000	0.280300	0.730600	0.101130
H15	H	0.307600	0.219700	0.726600	0.101130
H16	H	0.638400	0.607500	0.623400	0.273184
H17	H	0.728900	0.649700	0.532500	0.087935
H18	H	0.785500	0.605700	0.431600	0.118639
H19	H	0.642200	0.495900	0.354200	0.069567
H20	H	0.393600	0.489200	0.466900	0.069055
H21	H	0.228700	0.128600	0.279830	0.069567
H22	H	0.128900	0.040900	0.182630	0.114893
H23	H	0.098500	0.153400	0.103530	0.107449
H24	H	0.253000	0.431300	0.227730	0.101443
H25	H	0.195200	0.457700	0.126030	0.275368
H26	H	0.168000	0.527500	0.024930	0.072432
H27	H	0.047600	0.521500	0.113830	0.088141
H28	H	0.932600	0.434500	0.073830	0.088141
H29	H	0.988100	0.593700	0.993830	0.037031
H30	H	0.117600	0.787000	0.031530	0.101130
H31	H	0.184000	0.714500	0.022030	0.101130
H32	H	0.148500	0.734100	0.093530	0.101130
H33	H	0.920700	0.624100	0.122230	0.101130
H34	H	0.833300	0.553000	0.063930	0.101130
H35	H	0.912100	0.692400	0.059930	0.101130
H36	H	0.969100	0.361600	0.956730	0.273184
H37	H	0.920800	0.271100	0.865830	0.087935
H38	H	0.820200	0.214500	0.764930	0.118639
H39	H	0.853700	0.357800	0.687530	0.069567
H40	H	0.095600	0.606400	0.800230	0.069055
H41	H	0.899900	0.771300	0.613170	0.069567
H42	H	0.912000	0.871100	0.515970	0.114893
H43	H	0.054900	0.901500	0.436870	0.107449
H44	H	0.178300	0.747000	0.561070	0.101443
H45	H	0.262500	0.804800	0.459370	0.275368
H46	H	0.359500	0.832000	0.358270	0.072432
H47	H	0.473900	0.952400	0.447170	0.088141
H48	H	0.501900	0.067400	0.407170	0.088141
H49	H	0.605600	0.011900	0.327170	0.037031
H50	H	0.669400	0.882400	0.364870	0.101130
H51	H	0.530500	0.816000	0.355370	0.101130
H52	H	0.585600	0.851500	0.426870	0.101130
H53	H	0.703400	0.079300	0.455570	0.101130
H54	H	0.719700	0.166700	0.397270	0.101130
H55	H	0.780300	0.087900	0.393270	0.101130
H56	H	0.392500	0.030900	0.290070	0.273184
H57	H	0.350300	0.079200	0.199170	0.087935
H58	H	0.394300	0.179800	0.098270	0.118639
H59	H	0.504100	0.146300	0.020870	0.069567
H60	H	0.510800	0.904400	0.133570	0.069055
H61	H	0.771300	0.899900	0.053500	0.069567
H62	H	0.871100	0.912000	0.150700	0.114893
H63	H	0.901500	0.054900	0.229800	0.107449
H64	H	0.747000	0.178300	0.105600	0.101443
H65	H	0.804800	0.262500	0.207300	0.275368
H66	H	0.832000	0.359500	0.308400	0.072432
H67	H	0.952400	0.473900	0.219500	0.088141
H68	H	0.067400	0.501900	0.259500	0.088141
H69	H	0.011900	0.605600	0.339500	0.037031
H70	H	0.882400	0.669400	0.301800	0.101130
H71	H	0.816000	0.530500	0.311300	0.101130
H72	H	0.851500	0.585600	0.239800	0.101130
H73	H	0.079300	0.703400	0.211100	0.101130
H74	H	0.166700	0.719700	0.269400	0.101130
H75	H	0.087900	0.780300	0.273400	0.101130
H76	H	0.030900	0.392500	0.376600	0.273184
H77	H	0.079200	0.350300	0.467500	0.087935
H78	H	0.179800	0.394300	0.568400	0.118639
H79	H	0.146300	0.504100	0.645800	0.069567
H80	H	0.904400	0.510800	0.533100	0.069055
H81	H	0.100100	0.871400	0.720170	0.069567
H82	H	0.088000	0.959100	0.817370	0.114893
H83	H	0.945100	0.846600	0.896470	0.107449
H84	H	0.821700	0.568700	0.772270	0.101443
H85	H	0.737500	0.542300	0.873970	0.275368
H86	H	0.640500	0.472500	0.975070	0.072432
H87	H	0.526100	0.478500	0.886170	0.088141
H88	H	0.498100	0.565500	0.926170	0.088141
H89	H	0.394400	0.406300	0.006170	0.037031
H90	H	0.330600	0.213000	0.968470	0.101130
H91	H	0.469500	0.285500	0.977970	0.101130
H92	H	0.414400	0.265900	0.906470	0.101130
H93	H	0.296600	0.375900	0.877770	0.101130
H94	H	0.280300	0.447000	0.936070	0.101130
H95	H	0.219700	0.307600	0.940070	0.101130
H96	H	0.607500	0.638400	0.043270	0.273184
H97	H	0.649700	0.728900	0.134170	0.087935
H98	H	0.605700	0.785500	0.235070	0.118639
H99	H	0.495900	0.642200	0.312470	0.069567
H100	H	0.489200	0.393600	0.199770	0.069055
H101	H	0.128600	0.228700	0.386830	0.069567
H102	H	0.040900	0.128900	0.484030	0.114893
H103	H	0.153400	0.098500	0.563130	0.107449
H104	H	0.431300	0.253000	0.438930	0.101443
H105	H	0.457700	0.195200	0.540630	0.275368
H106	H	0.527500	0.168000	0.641730	0.072432
H107	H	0.521500	0.047600	0.552830	0.088141
H108	H	0.434500	0.932600	0.592830	0.088141
H109	H	0.593700	0.988100	0.672830	0.037031
H110	H	0.787000	0.117600	0.635130	0.101130
H111	H	0.714500	0.184000	0.644630	0.101130
H112	H	0.734100	0.148500	0.573130	0.101130
H113	H	0.624100	0.920700	0.544430	0.101130
H114	H	0.553000	0.833300	0.602730	0.101130
H115	H	0.692400	0.912100	0.606730	0.101130
H116	H	0.361600	0.969100	0.709930	0.273184
H117	H	0.271100	0.920800	0.800830	0.087935
H118	H	0.214500	0.820200	0.901730	0.118639
H119	H	0.357800	0.853700	0.979130	0.069567
H120	H	0.606400	0.095600	0.866430	0.069055
C1	C	0.825800	0.041600	0.915440	0.114754
C2	C	0.878700	0.034500	0.857040	-0.153053
C3	C	0.812400	0.948200	0.810290	-0.126790
C4	C	0.694900	0.866700	0.824120	0.115034
C5	C	0.647400	0.877800	0.884140	0.029428
C6	C	0.646000	0.732400	0.727030	0.482057
C7	C	0.538800	0.624400	0.695010	0.060134
C8	C	0.498800	0.512200	0.736250	-0.240761
C9	C	0.391600	0.399100	0.707880	0.114246
C10	C	0.278900	0.403800	0.714300	-0.363005
C11	C	0.379400	0.288800	0.741600	-0.363005
C12	C	0.507000	0.595400	0.574250	0.562083
C13	C	0.553700	0.572700	0.510810	-0.215752
C14	C	0.672100	0.607900	0.499830	0.032892
C15	C	0.705700	0.580700	0.440130	-0.197015
C16	C	0.619700	0.516400	0.393750	0.132831
C17	C	0.473200	0.511200	0.460510	0.149936
C18	C	0.215800	0.174200	0.248770	0.114754
C19	C	0.155800	0.121300	0.190370	-0.153053
C20	C	0.135800	0.187600	0.143620	-0.126790
C21	C	0.171800	0.305100	0.157450	0.115034
C22	C	0.230400	0.352600	0.217470	0.029428
C23	C	0.086400	0.354000	0.060360	0.482057
C24	C	0.085600	0.461200	0.028340	0.060134
C25	C	0.013400	0.501200	0.069580	-0.240761
C26	C	0.007500	0.608400	0.041210	0.114246
C27	C	0.124900	0.721100	0.047630	-0.363005
C28	C	0.909400	0.620600	0.074930	-0.363005
C29	C	0.088400	0.493000	0.907580	0.562083
C30	C	0.019000	0.446300	0.844140	-0.215752
C31	C	0.935800	0.327900	0.833160	0.032892
C32	C	0.875000	0.294300	0.773460	-0.197015
C33	C	0.896700	0.380300	0.727080	0.132831
C34	C	0.038000	0.526800	0.793840	0.149936
C35	C	0.958400	0.784200	0.582110	0.114754
C36	C	0.965500	0.844200	0.523710	-0.153053
C37	C	0.051800	0.864200	0.476960	-0.126790
C38	C	0.133300	0.828200	0.490790	0.115034
C39	C	0.122200	0.769600	0.550810	0.029428
C40	C	0.267600	0.913600	0.393700	0.482057
C41	C	0.375600	0.914400	0.361680	0.060134
C42	C	0.487800	0.986600	0.402920	-0.240761
C43	C	0.600900	0.992500	0.374550	0.114246
C44	C	0.596200	0.875100	0.380970	-0.363005
C45	C	0.711200	0.090600	0.408270	-0.363005
C46	C	0.404600	0.911600	0.240920	0.562083
C47	C	0.427300	0.981000	0.177480	-0.215752
C48	C	0.392100	0.064200	0.166500	0.032892
C49	C	0.419300	0.125000	0.106800	-0.197015
C50	C	0.483600	0.103300	0.060420	0.132831
C51	C	0.488800	0.962000	0.127180	0.149936
C52	C	0.784200	0.958400	0.084560	0.114754
C53	C	0.844200	0.965500	0.142960	-0.153053
C54	C	0.864200	0.051800	0.189710	-0.126790
C55	C	0.828200	0.133300	0.175880	0.115034
C56	C	0.769600	0.122200	0.115860	0.029428
C57	C	0.913600	0.267600	0.272970	0.482057
C58	C	0.914400	0.375600	0.304990	0.060134
C59	C	0.986600	0.487800	0.263750	-0.240761
C60	C	0.992500	0.600900	0.292120	0.114246
C61	C	0.875100	0.596200	0.285700	-0.363005
C62	C	0.090600	0.711200	0.258400	-0.363005
C63	C	0.911600	0.404600	0.425750	0.562083
C64	C	0.981000	0.427300	0.489190	-0.215752
C65	C	0.064200	0.392100	0.500170	0.032892
C66	C	0.125000	0.419300	0.559870	-0.197015
C67	C	0.103300	0.483600	0.606250	0.132831
C68	C	0.962000	0.488800	0.539490	0.149936
C69	C	0.041600	0.825800	0.751230	0.114754
C70	C	0.034500	0.878700	0.809630	-0.153053
C71	C	0.948200	0.812400	0.856380	-0.126790
C72	C	0.866700	0.694900	0.842550	0.115034
C73	C	0.877800	0.647400	0.782530	0.029428
C74	C	0.732400	0.646000	0.939640	0.482057
C75	C	0.624400	0.538800	0.971660	0.060134
C76	C	0.512200	0.498800	0.930420	-0.240761
C77	C	0.399100	0.391600	0.958790	0.114246
C78	C	0.403800	0.278900	0.952370	-0.363005
C79	C	0.288800	0.379400	0.925070	-0.363005
C80	C	0.595400	0.507000	0.092420	0.562083
C81	C	0.572700	0.553700	0.155860	-0.215752
C82	C	0.607900	0.672100	0.166840	0.032892
C83	C	0.580700	0.705700	0.226540	-0.197015
C84	C	0.516400	0.619700	0.272920	0.132831
C85	C	0.511200	0.473200	0.206160	0.149936
C86	C	0.174200	0.215800	0.417890	0.114754
C87	C	0.121300	0.155800	0.476290	-0.153053
C88	C	0.187600	0.135800	0.523040	-0.126790
C89	C	0.305100	0.171800	0.509210	0.115034
C90	C	0.352600	0.230400	0.449190	0.029428
C91	C	0.354000	0.086400	0.606300	0.482057
C92	C	0.461200	0.085600	0.638320	0.060134
C93	C	0.501200	0.013400	0.597080	-0.240761
C94	C	0.608400	0.007500	0.625450	0.114246
C95	C	0.721100	0.124900	0.619030	-0.363005
C96	C	0.620600	0.909400	0.591730	-0.363005
C97	C	0.493000	0.088400	0.759080	0.562083
C98	C	0.446300	0.019000	0.822520	-0.215752
C99	C	0.327900	0.935800	0.833500	0.032892
C100	C	0.294300	0.875000	0.893200	-0.197015
C101	C	0.380300	0.896700	0.939580	0.132831
C102	C	0.526800	0.038000	0.872820	0.149936
N1	N	0.710400	0.966000	0.927990	-0.274780
N2	N	0.616800	0.773100	0.782280	-0.392767
N3	N	0.572800	0.608500	0.628240	-0.458719
N4	N	0.504200	0.481800	0.403150	-0.294871
N5	N	0.255600	0.289600	0.261320	-0.274780
N6	N	0.156300	0.383200	0.115610	-0.392767
N7	N	0.035700	0.427200	0.961570	-0.458719
N8	N	0.977600	0.495800	0.736480	-0.294871
N9	N	0.034000	0.744400	0.594660	-0.274780
N10	N	0.226900	0.843700	0.448950	-0.392767
N11	N	0.391500	0.964300	0.294910	-0.458719
N12	N	0.518200	0.022400	0.069820	-0.294871
N13	N	0.744400	0.034000	0.072010	-0.274780
N14	N	0.843700	0.226900	0.217720	-0.392767
N15	N	0.964300	0.391500	0.371760	-0.458719
N16	N	0.022400	0.518200	0.596850	-0.294871
N17	N	0.966000	0.710400	0.738680	-0.274780
N18	N	0.773100	0.616800	0.884390	-0.392767
N19	N	0.608500	0.572800	0.038430	-0.458719
N20	N	0.481800	0.504200	0.263520	-0.294871
N21	N	0.289600	0.255600	0.405340	-0.274780
N22	N	0.383200	0.156300	0.551050	-0.392767
N23	N	0.427200	0.035700	0.705090	-0.458719
N24	N	0.495800	0.977600	0.930180	-0.294871
O1	O	0.746200	0.774100	0.705780	-0.516783
O2	O	0.414900	0.600300	0.575350	-0.544692
O3	O	0.027900	0.253800	0.039110	-0.516783
O4	O	0.185400	0.585100	0.908680	-0.544692
O5	O	0.225900	0.972100	0.372450	-0.516783
O6	O	0.399700	0.814600	0.242020	-0.544692
O7	O	0.972100	0.225900	0.294220	-0.516783
O8	O	0.814600	0.399700	0.424650	-0.544692
O9	O	0.774100	0.746200	0.960890	-0.516783
O10	O	0.600300	0.414900	0.091320	-0.544692
O11	O	0.253800	0.027900	0.627550	-0.516783
O12	O	0.585100	0.185400	0.757980	-0.544692
