data_PEFRUP_clean_PM
_symmetry_space_group_name_H-M	'P1'
_cell_length_a	15.187500
_cell_length_b	17.037800
_cell_length_c	25.648700
_cell_angle_alpha	97.910000
_cell_angle_beta	90.000000
_cell_angle_gamma	90.000000
_symmetry_Int_Tables_number 1

loop_
_symmetry_equiv_pos_as_xyz
'x,y,z'

loop_
_atom_site_label
_atom_site_type_symbol
_atom_site_fract_x
_atom_site_fract_y
_atom_site_fract_z
_atom_site_charge
Gd1	Gd	0.670760	0.314980	0.750290	2.175600
Gd2	Gd	0.204290	0.463220	0.250380	2.175600
Gd3	Gd	0.170760	0.185020	0.249710	2.175600
Gd4	Gd	0.704290	0.036780	0.749620	2.175600
Gd5	Gd	0.329240	0.685020	0.249710	2.175600
Gd6	Gd	0.795710	0.536780	0.749620	2.175600
Gd7	Gd	0.829240	0.814980	0.750290	2.175600
Gd8	Gd	0.295710	0.963220	0.250380	2.175600
H1	H	0.501200	0.383000	0.615800	0.073565
H2	H	0.659800	0.571200	0.613100	0.103707
H3	H	0.603400	0.589300	0.531500	0.124752
H4	H	0.564500	0.391500	0.867100	0.073565
H5	H	0.638900	0.617100	0.911800	0.103707
H6	H	0.566500	0.616800	0.991400	0.124752
H7	H	0.915300	0.454900	0.639500	0.073565
H8	H	0.842600	0.228700	0.595200	0.103707
H9	H	0.930100	0.223900	0.520600	0.124752
H10	H	0.145300	0.450200	0.427400	0.073565
H11	H	0.039600	0.239300	0.371000	0.103707
H12	H	0.974600	0.232500	0.452100	0.124752
H13	H	0.033500	0.209800	0.093600	0.073565
H14	H	0.142200	0.426400	0.104200	0.103707
H15	H	0.087500	0.440400	0.021500	0.124752
H16	H	0.976700	0.465600	0.875600	0.073565
H17	H	0.835600	0.266500	0.877400	0.103707
H18	H	0.907900	0.243100	0.953400	0.124752
H19	H	0.001200	0.117000	0.384200	0.073565
H20	H	0.159800	0.928800	0.386900	0.103707
H21	H	0.103400	0.910700	0.468500	0.124752
H22	H	0.064500	0.108500	0.132900	0.073565
H23	H	0.138900	0.882900	0.088200	0.103707
H24	H	0.066500	0.883200	0.008600	0.124752
H25	H	0.415300	0.045100	0.360500	0.073565
H26	H	0.342600	0.271300	0.404800	0.103707
H27	H	0.430100	0.276100	0.479400	0.124752
H28	H	0.645300	0.049800	0.572600	0.073565
H29	H	0.539600	0.260700	0.629000	0.103707
H30	H	0.474600	0.267500	0.547900	0.124752
H31	H	0.533500	0.290200	0.906400	0.073565
H32	H	0.642200	0.073600	0.895800	0.103707
H33	H	0.587500	0.059600	0.978500	0.124752
H34	H	0.476700	0.034400	0.124400	0.073565
H35	H	0.335600	0.233500	0.122600	0.103707
H36	H	0.407900	0.256900	0.046600	0.124752
H37	H	0.498800	0.617000	0.384200	0.073565
H38	H	0.340200	0.428800	0.386900	0.103707
H39	H	0.396600	0.410700	0.468500	0.124752
H40	H	0.435500	0.608500	0.132900	0.073565
H41	H	0.361100	0.382900	0.088200	0.103707
H42	H	0.433500	0.383200	0.008600	0.124752
H43	H	0.084700	0.545100	0.360500	0.073565
H44	H	0.157400	0.771300	0.404800	0.103707
H45	H	0.069900	0.776100	0.479400	0.124752
H46	H	0.854700	0.549800	0.572600	0.073565
H47	H	0.960400	0.760700	0.629000	0.103707
H48	H	0.025400	0.767500	0.547900	0.124752
H49	H	0.966500	0.790200	0.906400	0.073565
H50	H	0.857800	0.573600	0.895800	0.103707
H51	H	0.912500	0.559600	0.978500	0.124752
H52	H	0.023300	0.534400	0.124400	0.073565
H53	H	0.164400	0.733500	0.122600	0.103707
H54	H	0.092100	0.756900	0.046600	0.124752
H55	H	0.998800	0.883000	0.615800	0.073565
H56	H	0.840200	0.071200	0.613100	0.103707
H57	H	0.896600	0.089300	0.531500	0.124752
H58	H	0.935500	0.891500	0.867100	0.073565
H59	H	0.861100	0.117100	0.911800	0.103707
H60	H	0.933500	0.116800	0.991400	0.124752
H61	H	0.584700	0.954900	0.639500	0.073565
H62	H	0.657400	0.728700	0.595200	0.103707
H63	H	0.569900	0.723900	0.520600	0.124752
H64	H	0.354700	0.950200	0.427400	0.073565
H65	H	0.460400	0.739300	0.371000	0.103707
H66	H	0.525400	0.732500	0.452100	0.124752
H67	H	0.466500	0.709800	0.093600	0.073565
H68	H	0.357800	0.926400	0.104200	0.103707
H69	H	0.412500	0.940400	0.021500	0.124752
H70	H	0.523300	0.965600	0.875600	0.073565
H71	H	0.664400	0.766500	0.877400	0.103707
H72	H	0.592100	0.743100	0.953400	0.124752
C1	C	0.518500	0.497000	0.524800	0.217019
C2	C	0.521700	0.424400	0.598900	0.217698
C3	C	0.586100	0.475300	0.622500	-0.238283
C4	C	0.616700	0.537100	0.597300	0.027644
C5	C	0.582900	0.548000	0.548400	-0.172691
C6	C	0.627500	0.461000	0.673500	0.814189
C7	C	0.522200	0.503900	0.977000	0.217019
C8	C	0.564900	0.436600	0.892000	0.217698
C9	C	0.608900	0.504300	0.881500	-0.238283
C10	C	0.609500	0.571800	0.918800	0.027644
C11	C	0.566100	0.571600	0.966500	-0.172691
C12	C	0.660500	0.503800	0.831700	0.814189
C13	C	0.975100	0.336500	0.535400	0.217019
C14	C	0.918300	0.408600	0.615700	0.217698
C15	C	0.870300	0.342300	0.624800	-0.238283
C16	C	0.874700	0.273100	0.589100	0.027644
C17	C	0.927100	0.270200	0.544500	-0.172691
C18	C	0.815500	0.343600	0.671500	0.814189
C19	C	0.021000	0.337200	0.488400	0.217019
C20	C	0.111000	0.406600	0.432400	0.217698
C21	C	0.098900	0.345400	0.391200	-0.238283
C22	C	0.047700	0.280200	0.398600	0.027644
C23	C	0.008800	0.276100	0.447200	-0.172691
C24	C	0.132000	0.348700	0.336700	0.814189
C25	C	0.027700	0.333500	0.008000	0.217019
C26	C	0.044300	0.256000	0.079100	0.217698
C27	C	0.093300	0.316700	0.107100	-0.238283
C28	C	0.109500	0.385800	0.085500	0.027644
C29	C	0.076700	0.394200	0.036000	-0.172691
C30	C	0.124300	0.305500	0.160600	0.814189
C31	C	0.985600	0.340300	0.960100	0.217019
C32	C	0.962900	0.421000	0.891200	0.217698
C33	C	0.899000	0.368400	0.869000	-0.238283
C34	C	0.878400	0.301700	0.892300	0.027644
C35	C	0.921700	0.287700	0.937800	-0.172691
C36	C	0.846900	0.383200	0.820700	0.814189
C37	C	0.018500	0.003000	0.475200	0.217019
C38	C	0.021700	0.075600	0.401100	0.217698
C39	C	0.086100	0.024700	0.377500	-0.238283
C40	C	0.116700	0.962900	0.402700	0.027644
C41	C	0.082900	0.952000	0.451600	-0.172691
C42	C	0.127500	0.039000	0.326500	0.814189
C43	C	0.022200	0.996100	0.023000	0.217019
C44	C	0.064900	0.063400	0.108000	0.217698
C45	C	0.108900	0.995700	0.118500	-0.238283
C46	C	0.109500	0.928200	0.081200	0.027644
C47	C	0.066100	0.928400	0.033500	-0.172691
C48	C	0.160500	0.996200	0.168300	0.814189
C49	C	0.475100	0.163500	0.464600	0.217019
C50	C	0.418300	0.091400	0.384300	0.217698
C51	C	0.370300	0.157700	0.375200	-0.238283
C52	C	0.374700	0.226900	0.410900	0.027644
C53	C	0.427100	0.229800	0.455500	-0.172691
C54	C	0.315500	0.156400	0.328500	0.814189
C55	C	0.521000	0.162800	0.511600	0.217019
C56	C	0.611000	0.093400	0.567600	0.217698
C57	C	0.598900	0.154600	0.608800	-0.238283
C58	C	0.547700	0.219800	0.601400	0.027644
C59	C	0.508800	0.223900	0.552800	-0.172691
C60	C	0.632000	0.151300	0.663300	0.814189
C61	C	0.527700	0.166500	0.992000	0.217019
C62	C	0.544300	0.244000	0.920900	0.217698
C63	C	0.593300	0.183300	0.892900	-0.238283
C64	C	0.609500	0.114200	0.914500	0.027644
C65	C	0.576700	0.105800	0.964000	-0.172691
C66	C	0.624300	0.194500	0.839400	0.814189
C67	C	0.485600	0.159700	0.039900	0.217019
C68	C	0.462900	0.079000	0.108800	0.217698
C69	C	0.399000	0.131600	0.131000	-0.238283
C70	C	0.378400	0.198300	0.107700	0.027644
C71	C	0.421700	0.212300	0.062200	-0.172691
C72	C	0.346900	0.116800	0.179300	0.814189
C73	C	0.481500	0.503000	0.475200	0.217019
C74	C	0.478300	0.575600	0.401100	0.217698
C75	C	0.413900	0.524700	0.377500	-0.238283
C76	C	0.383300	0.462900	0.402700	0.027644
C77	C	0.417100	0.452000	0.451600	-0.172691
C78	C	0.372500	0.539000	0.326500	0.814189
C79	C	0.477800	0.496100	0.023000	0.217019
C80	C	0.435100	0.563400	0.108000	0.217698
C81	C	0.391100	0.495700	0.118500	-0.238283
C82	C	0.390500	0.428200	0.081200	0.027644
C83	C	0.433900	0.428400	0.033500	-0.172691
C84	C	0.339500	0.496200	0.168300	0.814189
C85	C	0.024900	0.663500	0.464600	0.217019
C86	C	0.081700	0.591400	0.384300	0.217698
C87	C	0.129700	0.657700	0.375200	-0.238283
C88	C	0.125300	0.726900	0.410900	0.027644
C89	C	0.072900	0.729800	0.455500	-0.172691
C90	C	0.184500	0.656400	0.328500	0.814189
C91	C	0.979000	0.662800	0.511600	0.217019
C92	C	0.889000	0.593400	0.567600	0.217698
C93	C	0.901100	0.654600	0.608800	-0.238283
C94	C	0.952300	0.719800	0.601400	0.027644
C95	C	0.991200	0.723900	0.552800	-0.172691
C96	C	0.868000	0.651300	0.663300	0.814189
C97	C	0.972300	0.666500	0.992000	0.217019
C98	C	0.955700	0.744000	0.920900	0.217698
C99	C	0.906700	0.683300	0.892900	-0.238283
C100	C	0.890500	0.614200	0.914500	0.027644
C101	C	0.923300	0.605800	0.964000	-0.172691
C102	C	0.875700	0.694500	0.839400	0.814189
C103	C	0.014400	0.659700	0.039900	0.217019
C104	C	0.037100	0.579000	0.108800	0.217698
C105	C	0.101000	0.631600	0.131000	-0.238283
C106	C	0.121600	0.698300	0.107700	0.027644
C107	C	0.078300	0.712300	0.062200	-0.172691
C108	C	0.153100	0.616800	0.179300	0.814189
C109	C	0.981500	0.997000	0.524800	0.217019
C110	C	0.978300	0.924400	0.598900	0.217698
C111	C	0.913900	0.975300	0.622500	-0.238283
C112	C	0.883300	0.037100	0.597300	0.027644
C113	C	0.917100	0.048000	0.548400	-0.172691
C114	C	0.872500	0.961000	0.673500	0.814189
C115	C	0.977800	0.003900	0.977000	0.217019
C116	C	0.935100	0.936600	0.892000	0.217698
C117	C	0.891100	0.004300	0.881500	-0.238283
C118	C	0.890500	0.071800	0.918800	0.027644
C119	C	0.933900	0.071600	0.966500	-0.172691
C120	C	0.839500	0.003800	0.831700	0.814189
C121	C	0.524900	0.836500	0.535400	0.217019
C122	C	0.581700	0.908600	0.615700	0.217698
C123	C	0.629700	0.842300	0.624800	-0.238283
C124	C	0.625300	0.773100	0.589100	0.027644
C125	C	0.572900	0.770200	0.544500	-0.172691
C126	C	0.684500	0.843600	0.671500	0.814189
C127	C	0.479000	0.837200	0.488400	0.217019
C128	C	0.389000	0.906600	0.432400	0.217698
C129	C	0.401100	0.845400	0.391200	-0.238283
C130	C	0.452300	0.780200	0.398600	0.027644
C131	C	0.491200	0.776100	0.447200	-0.172691
C132	C	0.368000	0.848700	0.336700	0.814189
C133	C	0.472300	0.833500	0.008000	0.217019
C134	C	0.455700	0.756000	0.079100	0.217698
C135	C	0.406700	0.816700	0.107100	-0.238283
C136	C	0.390500	0.885800	0.085500	0.027644
C137	C	0.423300	0.894200	0.036000	-0.172691
C138	C	0.375700	0.805500	0.160600	0.814189
C139	C	0.514400	0.840300	0.960100	0.217019
C140	C	0.537100	0.921000	0.891200	0.217698
C141	C	0.601000	0.868400	0.869000	-0.238283
C142	C	0.621600	0.801700	0.892300	0.027644
C143	C	0.578300	0.787700	0.937800	-0.172691
C144	C	0.653100	0.883200	0.820700	0.814189
N1	N	0.487900	0.435200	0.550100	-0.394977
N2	N	0.521600	0.436500	0.939700	-0.394977
N3	N	0.970600	0.405700	0.571000	-0.394977
N4	N	0.072100	0.402500	0.481000	-0.394977
N5	N	0.011500	0.264400	0.029600	-0.394977
N6	N	0.006200	0.407000	0.936800	-0.394977
N7	N	0.987900	0.064800	0.449900	-0.394977
N8	N	0.021600	0.063500	0.060300	-0.394977
N9	N	0.470600	0.094300	0.429000	-0.394977
N10	N	0.572100	0.097500	0.519000	-0.394977
N11	N	0.511500	0.235600	0.970400	-0.394977
N12	N	0.506200	0.093000	0.063200	-0.394977
N13	N	0.512100	0.564800	0.449900	-0.394977
N14	N	0.478400	0.563500	0.060300	-0.394977
N15	N	0.029400	0.594300	0.429000	-0.394977
N16	N	0.927900	0.597500	0.519000	-0.394977
N17	N	0.988500	0.735600	0.970400	-0.394977
N18	N	0.993800	0.593000	0.063200	-0.394977
N19	N	0.012100	0.935200	0.550100	-0.394977
N20	N	0.978400	0.936500	0.939700	-0.394977
N21	N	0.529400	0.905700	0.571000	-0.394977
N22	N	0.427900	0.902500	0.481000	-0.394977
N23	N	0.488500	0.764400	0.029600	-0.394977
N24	N	0.493800	0.907000	0.936800	-0.394977
O1	O	0.660200	0.440900	0.801800	-0.748912
O2	O	0.775500	0.282300	0.679300	-0.748912
O3	O	0.802500	0.329100	0.799300	-0.748912
O4	O	0.613500	0.391500	0.685100	-0.748912
O5	O	0.114800	0.295100	0.301300	-0.748912
O6	O	0.138200	0.241000	0.172400	-0.748912
O7	O	0.176200	0.410400	0.331200	-0.748912
O8	O	0.806100	0.408100	0.701300	-0.748912
O9	O	0.662700	0.515300	0.700800	-0.748912
O10	O	0.697000	0.565200	0.822000	-0.748912
O11	O	0.851200	0.452900	0.810800	-0.748912
O12	O	0.137700	0.367000	0.191600	-0.748912
O13	O	0.160200	0.059100	0.198200	-0.748912
O14	O	0.275500	0.217700	0.320700	-0.748912
O15	O	0.302500	0.170900	0.200700	-0.748912
O16	O	0.113500	0.108500	0.314900	-0.748912
O17	O	0.614800	0.204900	0.698700	-0.748912
O18	O	0.638200	0.259000	0.827600	-0.748912
O19	O	0.676200	0.089600	0.668800	-0.748912
O20	O	0.306100	0.091900	0.298700	-0.748912
O21	O	0.162700	0.984700	0.299200	-0.748912
O22	O	0.197000	0.934800	0.178000	-0.748912
O23	O	0.351200	0.047100	0.189200	-0.748912
O24	O	0.637700	0.133000	0.808400	-0.748912
O25	O	0.339800	0.559100	0.198200	-0.748912
O26	O	0.224500	0.717700	0.320700	-0.748912
O27	O	0.197500	0.670900	0.200700	-0.748912
O28	O	0.386500	0.608500	0.314900	-0.748912
O29	O	0.885200	0.704900	0.698700	-0.748912
O30	O	0.861800	0.759000	0.827600	-0.748912
O31	O	0.823800	0.589600	0.668800	-0.748912
O32	O	0.193900	0.591900	0.298700	-0.748912
O33	O	0.337300	0.484700	0.299200	-0.748912
O34	O	0.303000	0.434800	0.178000	-0.748912
O35	O	0.148800	0.547100	0.189200	-0.748912
O36	O	0.862300	0.633000	0.808400	-0.748912
O37	O	0.839800	0.940900	0.801800	-0.748912
O38	O	0.724500	0.782300	0.679300	-0.748912
O39	O	0.697500	0.829100	0.799300	-0.748912
O40	O	0.886500	0.891500	0.685100	-0.748912
O41	O	0.385200	0.795100	0.301300	-0.748912
O42	O	0.361800	0.741000	0.172400	-0.748912
O43	O	0.323800	0.910400	0.331200	-0.748912
O44	O	0.693900	0.908100	0.701300	-0.748912
O45	O	0.837300	0.015300	0.700800	-0.748912
O46	O	0.803000	0.065200	0.822000	-0.748912
O47	O	0.648800	0.952900	0.810800	-0.748912
O48	O	0.362300	0.867000	0.191600	-0.748912
