data_PEJRED_clean_PM
_symmetry_space_group_name_H-M	'P1'
_cell_length_a	9.038400
_cell_length_b	16.340700
_cell_length_c	18.505000
_cell_angle_alpha	73.393999
_cell_angle_beta	76.394003
_cell_angle_gamma	86.298000
_symmetry_Int_Tables_number 1

loop_
_symmetry_equiv_pos_as_xyz
'x,y,z'

loop_
_atom_site_label
_atom_site_type_symbol
_atom_site_fract_x
_atom_site_fract_y
_atom_site_fract_z
_atom_site_charge
Co1	Co	0.745330	0.032660	0.177120	0.912265
Co2	Co	0.847880	0.279390	0.608760	0.959318
Co3	Co	0.254670	0.967340	0.822880	0.912265
Co4	Co	0.152120	0.720610	0.391240	0.959318
H1	H	0.869600	0.461000	0.025500	0.070257
H2	H	0.692600	0.475800	0.044200	0.070257
H3	H	0.843000	0.282500	0.152900	0.070257
H4	H	0.878000	0.320800	0.216100	0.070257
H5	H	0.918900	0.503800	0.130600	0.070257
H6	H	0.819900	0.469200	0.215300	0.070257
H7	H	0.583200	0.327100	0.174300	0.070257
H8	H	0.536600	0.421500	0.174600	0.070257
H9	H	0.919100	0.601000	0.202000	0.127915
H10	H	0.747700	0.242400	0.972800	0.127915
H11	H	0.760500	0.245600	0.848300	0.094937
H12	H	0.771100	0.501400	0.788300	0.094937
H13	H	0.759100	0.499400	0.912400	0.127915
H14	H	0.017900	0.213100	0.225100	0.127915
H15	H	0.217300	0.118700	0.245900	0.094937
H16	H	0.497600	0.271700	0.064500	0.094937
H17	H	0.298200	0.363700	0.042100	0.127915
H18	H	0.937100	0.186400	0.047500	0.112239
H19	H	0.088100	0.953900	0.120000	0.099628
H20	H	0.205800	0.185600	0.983800	0.131404
H21	H	0.295900	0.909800	0.025700	0.117514
H22	H	0.458400	0.136900	0.011800	0.117514
H23	H	0.916400	0.728900	0.233800	0.094937
H24	H	0.548700	0.802200	0.149000	0.094937
H25	H	0.539800	0.672400	0.125500	0.127915
H26	H	0.125700	0.293400	0.359100	0.095126
H27	H	0.664400	0.175100	0.274100	0.112239
H28	H	0.770900	0.175900	0.381900	0.131404
H29	H	0.912100	0.968800	0.317000	0.099628
H30	H	0.620100	0.965900	0.602600	0.117514
H31	H	0.341500	0.318500	0.253500	0.127915
H32	H	0.580500	0.365800	0.397500	0.127915
H33	H	0.364100	0.348700	0.498600	0.095126
H34	H	0.756400	0.126700	0.561500	0.099548
H35	H	0.467200	0.271700	0.647400	0.109411
H36	H	0.322800	0.172700	0.613300	0.131404
H37	H	0.404300	0.137100	0.460600	0.117514
H38	H	0.130400	0.539000	0.974500	0.070257
H39	H	0.307400	0.524200	0.955800	0.070257
H40	H	0.157000	0.717500	0.847100	0.070257
H41	H	0.122000	0.679200	0.783900	0.070257
H42	H	0.081100	0.496200	0.869400	0.070257
H43	H	0.180100	0.530800	0.784700	0.070257
H44	H	0.416800	0.672900	0.825700	0.070257
H45	H	0.463400	0.578500	0.825400	0.070257
H46	H	0.080900	0.399000	0.798000	0.127915
H47	H	0.252300	0.757600	0.027200	0.127915
H48	H	0.239500	0.754400	0.151700	0.094937
H49	H	0.228900	0.498600	0.211700	0.094937
H50	H	0.240900	0.500600	0.087600	0.127915
H51	H	0.982100	0.786900	0.774900	0.127915
H52	H	0.782700	0.881300	0.754100	0.094937
H53	H	0.502400	0.728300	0.935500	0.094937
H54	H	0.701800	0.636300	0.957900	0.127915
H55	H	0.062900	0.813600	0.952500	0.112239
H56	H	0.911900	0.046100	0.880000	0.099628
H57	H	0.794200	0.814400	0.016200	0.131404
H58	H	0.704100	0.090200	0.974300	0.117514
H59	H	0.541600	0.863100	0.988200	0.117514
H60	H	0.083600	0.271100	0.766200	0.094937
H61	H	0.451300	0.197800	0.851000	0.094937
H62	H	0.460200	0.327600	0.874500	0.127915
H63	H	0.874300	0.706600	0.640900	0.095126
H64	H	0.335600	0.824900	0.725900	0.112239
H65	H	0.229100	0.824100	0.618100	0.131404
H66	H	0.087900	0.031200	0.683000	0.099628
H67	H	0.379900	0.034100	0.397400	0.117514
H68	H	0.658500	0.681500	0.746500	0.127915
H69	H	0.419500	0.634200	0.602500	0.127915
H70	H	0.635900	0.651300	0.501400	0.095126
H71	H	0.243600	0.873300	0.438500	0.099548
H72	H	0.532800	0.728300	0.352600	0.109411
H73	H	0.677200	0.827300	0.386700	0.131404
H74	H	0.595700	0.862900	0.539400	0.117514
C1	C	0.769300	0.407700	0.139700	-0.032196
C2	C	0.772500	0.434500	0.054600	0.059569
C3	C	0.877300	0.333200	0.161600	0.059569
C4	C	0.818000	0.484700	0.160900	0.059569
C5	C	0.610600	0.377000	0.186900	0.059569
C6	C	0.481200	0.344600	0.318100	0.288555
C7	C	0.723800	0.623500	0.163700	0.288555
C8	C	0.842200	0.640700	0.193200	-0.254762
C9	C	0.755200	0.368700	0.955400	0.288555
C10	C	0.753900	0.294600	0.935100	-0.254762
C11	C	0.761300	0.296400	0.861300	0.014093
C12	C	0.770100	0.373700	0.804300	-0.168949
C13	C	0.783500	0.376800	0.722000	0.647118
C14	C	0.767700	0.449300	0.825900	0.014093
C15	C	0.760500	0.448700	0.899000	-0.254762
C16	C	0.137700	0.297900	0.131700	0.288555
C17	C	0.113900	0.224900	0.192300	-0.254762
C18	C	0.234100	0.168100	0.204700	0.014093
C19	C	0.378000	0.184700	0.156300	-0.171350
C20	C	0.401100	0.258800	0.096500	0.014093
C21	C	0.281600	0.314600	0.083500	-0.254762
C22	C	0.504300	0.123800	0.173400	0.651072
C23	C	0.000600	0.139100	0.054100	0.046064
C24	C	0.082300	0.011400	0.094100	0.132067
C25	C	0.149400	0.139300	0.018600	-0.138742
C26	C	0.353800	0.029000	0.020600	0.108714
C27	C	0.378000	0.946200	0.015000	-0.125063
C28	C	0.475000	0.081800	0.006700	-0.125063
C29	C	0.756900	0.868500	0.197500	0.651072
C30	C	0.740200	0.780200	0.190400	-0.171350
C31	C	0.843300	0.718800	0.209400	0.014093
C32	C	0.623200	0.761600	0.160100	0.014093
C33	C	0.617300	0.683900	0.146600	-0.254762
C34	C	0.089500	0.298800	0.506200	0.645289
C35	C	0.232400	0.317800	0.439600	-0.172851
C36	C	0.218700	0.308700	0.364900	0.014678
C37	C	0.515100	0.060200	0.537200	0.108714
C38	C	0.947100	0.942400	0.469600	-0.077057
C39	C	0.007800	0.912300	0.533900	-0.077057
C40	C	0.938100	0.029000	0.437100	0.129910
C41	C	0.728800	0.133700	0.296100	0.046064
C42	C	0.785200	0.134100	0.355800	-0.128892
C43	C	0.863300	0.020200	0.319200	0.143304
C44	C	0.572000	0.979700	0.561500	-0.125063
C45	C	0.346100	0.323000	0.301900	-0.253285
C46	C	0.487900	0.352400	0.389900	-0.253285
C47	C	0.359600	0.340600	0.451400	0.014678
C48	C	0.663500	0.151400	0.577700	0.139973
C49	C	0.510100	0.229700	0.624000	0.057006
C50	C	0.428000	0.174900	0.606100	-0.140299
C51	C	0.442700	0.082300	0.476400	-0.125063
C52	C	0.230700	0.592300	0.860300	-0.032196
C53	C	0.227500	0.565500	0.945400	0.059569
C54	C	0.122700	0.666800	0.838400	0.059569
C55	C	0.182000	0.515300	0.839100	0.059569
C56	C	0.389400	0.623000	0.813100	0.059569
C57	C	0.518800	0.655400	0.681900	0.288555
C58	C	0.276200	0.376500	0.836300	0.288555
C59	C	0.157800	0.359300	0.806800	-0.254762
C60	C	0.244800	0.631300	0.044600	0.288555
C61	C	0.246100	0.705400	0.064900	-0.254762
C62	C	0.238700	0.703600	0.138700	0.014093
C63	C	0.229900	0.626300	0.195700	-0.168949
C64	C	0.216500	0.623200	0.278000	0.647118
C65	C	0.232300	0.550700	0.174100	0.014093
C66	C	0.239500	0.551300	0.101000	-0.254762
C67	C	0.862300	0.702100	0.868300	0.288555
C68	C	0.886100	0.775100	0.807700	-0.254762
C69	C	0.765900	0.831900	0.795300	0.014093
C70	C	0.622000	0.815300	0.843700	-0.171350
C71	C	0.598900	0.741200	0.903500	0.014093
C72	C	0.718400	0.685400	0.916500	-0.254762
C73	C	0.495700	0.876200	0.826600	0.651072
C74	C	0.999400	0.860900	0.945900	0.046064
C75	C	0.917700	0.988600	0.905900	0.132067
C76	C	0.850600	0.860700	0.981400	-0.138742
C77	C	0.646200	0.971000	0.979400	0.108714
C78	C	0.622000	0.053800	0.985000	-0.125063
C79	C	0.525000	0.918200	0.993300	-0.125063
C80	C	0.243100	0.131500	0.802500	0.651072
C81	C	0.259800	0.219800	0.809600	-0.171350
C82	C	0.156700	0.281200	0.790600	0.014093
C83	C	0.376800	0.238400	0.839900	0.014093
C84	C	0.382700	0.316100	0.853400	-0.254762
C85	C	0.910500	0.701200	0.493800	0.645289
C86	C	0.767600	0.682200	0.560400	-0.172851
C87	C	0.781300	0.691300	0.635100	0.014678
C88	C	0.484900	0.939800	0.462800	0.108714
C89	C	0.052900	0.057600	0.530400	-0.077057
C90	C	0.992200	0.087700	0.466100	-0.077057
C91	C	0.061900	0.971000	0.562900	0.129910
C92	C	0.271200	0.866300	0.703900	0.046064
C93	C	0.214800	0.865900	0.644200	-0.128892
C94	C	0.136700	0.979800	0.680800	0.143304
C95	C	0.428000	0.020300	0.438500	-0.125063
C96	C	0.653900	0.677000	0.698100	-0.253285
C97	C	0.512100	0.647600	0.610100	-0.253285
C98	C	0.640400	0.659400	0.548600	0.014678
C99	C	0.336500	0.848600	0.422300	0.139973
C100	C	0.489900	0.770300	0.376000	0.057006
C101	C	0.572000	0.825100	0.393900	-0.140299
C102	C	0.557300	0.917700	0.523600	-0.125063
N1	N	0.956000	0.058500	0.101700	-0.407686
N2	N	0.200300	0.058300	0.043700	0.040486
N3	N	0.867900	0.061800	0.371400	0.043721
N4	N	0.779500	0.062800	0.271400	-0.407686
N5	N	0.539200	0.121500	0.573500	0.040568
N6	N	0.657700	0.216700	0.604700	-0.402291
N7	N	0.044000	0.941500	0.898300	-0.407686
N8	N	0.799700	0.941700	0.956300	0.040486
N9	N	0.132100	0.938200	0.628600	0.043721
N10	N	0.220500	0.937200	0.728600	-0.407686
N11	N	0.460800	0.878500	0.426500	0.040568
N12	N	0.342300	0.783300	0.395300	-0.402291
O1	O	0.028000	0.355900	0.115100	-0.257832
O2	O	0.750100	0.360800	0.031600	-0.257832
O3	O	0.710400	0.549900	0.144600	-0.257832
O4	O	0.610200	0.356600	0.265300	-0.257832
O5	O	0.796700	0.448200	0.673100	-0.608854
O6	O	0.637100	0.140900	0.127300	-0.609757
O7	O	0.480200	0.058000	0.228100	-0.610080
O8	O	0.668800	0.925900	0.167600	-0.609757
O9	O	0.855300	0.884500	0.228500	-0.610080
O10	O	0.085900	0.318900	0.564200	-0.561772
O11	O	0.972500	0.269400	0.497200	-0.561772
O12	O	0.784400	0.305600	0.707500	-0.616153
O13	O	0.972000	0.644100	0.884900	-0.257832
O14	O	0.249900	0.639200	0.968400	-0.257832
O15	O	0.289600	0.450100	0.855400	-0.257832
O16	O	0.389800	0.643400	0.734700	-0.257832
O17	O	0.203300	0.551800	0.326900	-0.608854
O18	O	0.362900	0.859100	0.872700	-0.609757
O19	O	0.519800	0.942000	0.771900	-0.610080
O20	O	0.331200	0.074100	0.832400	-0.609757
O21	O	0.144700	0.115500	0.771500	-0.610080
O22	O	0.914100	0.681100	0.435800	-0.561772
O23	O	0.027500	0.730600	0.502800	-0.561772
O24	O	0.215600	0.694400	0.292500	-0.616153
