data_PEKKAS_clean_PM
_symmetry_space_group_name_H-M	'P1'
_cell_length_a	9.014800
_cell_length_b	9.014800
_cell_length_c	11.464500
_cell_angle_alpha	90.000000
_cell_angle_beta	90.000000
_cell_angle_gamma	119.999999
_symmetry_Int_Tables_number 1

loop_
_symmetry_equiv_pos_as_xyz
'x,y,z'

loop_
_atom_site_label
_atom_site_type_symbol
_atom_site_fract_x
_atom_site_fract_y
_atom_site_fract_z
_atom_site_charge
In1	In	0.500000	0.000000	0.666670	1.566859
In2	In	0.500000	0.500000	0.000000	1.566859
In3	In	0.000000	0.500000	0.333330	1.566859
C1	C	0.791000	0.209000	0.500000	0.455818
C2	C	0.691550	0.308450	0.500000	0.503966
C3	C	0.418000	0.209000	0.833330	0.455818
C4	C	0.616900	0.308450	0.833330	0.503966
C5	C	0.791000	0.582000	0.166670	0.455818
C6	C	0.691550	0.383100	0.166670	0.503966
C7	C	0.209000	0.791000	0.500000	0.455818
C8	C	0.308450	0.691550	0.500000	0.503966
C9	C	0.582000	0.791000	0.833330	0.455818
C10	C	0.383100	0.691550	0.833330	0.503966
C11	C	0.209000	0.418000	0.166670	0.455818
C12	C	0.308450	0.616900	0.166670	0.503966
O1	O	0.734500	0.075200	0.562900	-0.415733
O2	O	0.556700	0.243500	0.556900	-0.455873
O3	O	0.340700	0.265500	0.896230	-0.415733
O4	O	0.686800	0.443300	0.890230	-0.455873
O5	O	0.924800	0.659300	0.229570	-0.415733
O6	O	0.756500	0.313200	0.223570	-0.455873
O7	O	0.265500	0.924800	0.562900	-0.415733
O8	O	0.443300	0.756500	0.556900	-0.455873
O9	O	0.659300	0.734500	0.896230	-0.415733
O10	O	0.313200	0.556700	0.890230	-0.455873
O11	O	0.075200	0.340700	0.229570	-0.415733
O12	O	0.243500	0.686800	0.223570	-0.455873
O13	O	0.659300	0.924800	0.770430	-0.415733
O14	O	0.313200	0.756500	0.776430	-0.455873
O15	O	0.075200	0.734500	0.437100	-0.415733
O16	O	0.243500	0.556700	0.443100	-0.455873
O17	O	0.265500	0.340700	0.103770	-0.415733
O18	O	0.443300	0.686800	0.109770	-0.455873
O19	O	0.340700	0.075200	0.770430	-0.415733
O20	O	0.686800	0.243500	0.776430	-0.455873
O21	O	0.924800	0.265500	0.437100	-0.415733
O22	O	0.756500	0.443300	0.443100	-0.455873
O23	O	0.734500	0.659300	0.103770	-0.415733
O24	O	0.556700	0.313200	0.109770	-0.455873
