data_PENZUE_clean_PM
_symmetry_space_group_name_H-M	'P1'
_cell_length_a	8.459000
_cell_length_b	9.622000
_cell_length_c	24.389000
_cell_angle_alpha	90.000000
_cell_angle_beta	90.000000
_cell_angle_gamma	90.000000
_symmetry_Int_Tables_number 1

loop_
_symmetry_equiv_pos_as_xyz
'x,y,z'

loop_
_atom_site_label
_atom_site_type_symbol
_atom_site_fract_x
_atom_site_fract_y
_atom_site_fract_z
_atom_site_charge
Zn1	Zn	0.773410	0.595520	0.535070	1.052599
Zn2	Zn	0.773410	0.904480	0.964930	1.052599
Zn3	Zn	0.726590	0.404480	0.035070	1.052599
Zn4	Zn	0.726590	0.095520	0.464930	1.052599
Zn5	Zn	0.226590	0.404480	0.464930	1.052599
Zn6	Zn	0.226590	0.095520	0.035070	1.052599
Zn7	Zn	0.273410	0.595520	0.964930	1.052599
Zn8	Zn	0.273410	0.904480	0.535070	1.052599
P1	P	0.865540	0.397950	0.437630	1.518705
P2	P	0.865540	0.102050	0.062370	1.518705
P3	P	0.634460	0.602050	0.937630	1.518705
P4	P	0.634460	0.897950	0.562370	1.518705
P5	P	0.134460	0.602050	0.562370	1.518705
P6	P	0.134460	0.897950	0.937630	1.518705
P7	P	0.365540	0.397950	0.062370	1.518705
P8	P	0.365540	0.102050	0.437630	1.518705
H1	H	0.779300	0.386700	0.393700	-0.279434
H2	H	0.417900	0.208800	0.602500	0.134533
H3	H	0.587900	0.315500	0.541600	0.086024
H4	H	0.622400	0.643900	0.637800	0.086024
H5	H	0.453000	0.545000	0.700700	0.134533
H6	H	0.229200	0.369800	0.713700	0.100385
H7	H	0.250000	0.221300	0.684800	0.100385
H8	H	0.474000	0.173200	0.737600	0.074638
H9	H	0.779300	0.113300	0.106300	-0.279434
H10	H	0.417900	0.291200	0.897500	0.134533
H11	H	0.587900	0.184500	0.958400	0.086024
H12	H	0.622400	0.856100	0.862200	0.086024
H13	H	0.453000	0.955000	0.799300	0.134533
H14	H	0.229200	0.130200	0.786300	0.100385
H15	H	0.250000	0.278700	0.815200	0.100385
H16	H	0.474000	0.326800	0.762400	0.074638
H17	H	0.720700	0.613300	0.893700	-0.279434
H18	H	0.082100	0.791200	0.102500	0.134533
H19	H	0.912100	0.684500	0.041600	0.086024
H20	H	0.877600	0.356100	0.137800	0.086024
H21	H	0.047000	0.455000	0.200700	0.134533
H22	H	0.270800	0.630200	0.213700	0.100385
H23	H	0.250000	0.778700	0.184800	0.100385
H24	H	0.026000	0.826800	0.237600	0.074638
H25	H	0.720700	0.886700	0.606300	-0.279434
H26	H	0.082100	0.708800	0.397500	0.134533
H27	H	0.912100	0.815500	0.458400	0.086024
H28	H	0.877600	0.143900	0.362200	0.086024
H29	H	0.047000	0.045000	0.299300	0.134533
H30	H	0.270800	0.869800	0.286300	0.100385
H31	H	0.250000	0.721300	0.315200	0.100385
H32	H	0.026000	0.673200	0.262400	0.074638
H33	H	0.220700	0.613300	0.606300	-0.279434
H34	H	0.582100	0.791200	0.397500	0.134533
H35	H	0.412100	0.684500	0.458400	0.086024
H36	H	0.377600	0.356100	0.362200	0.086024
H37	H	0.547000	0.455000	0.299300	0.134533
H38	H	0.770800	0.630200	0.286300	0.100385
H39	H	0.750000	0.778700	0.315200	0.100385
H40	H	0.526000	0.826800	0.262400	0.074638
H41	H	0.220700	0.886700	0.893700	-0.279434
H42	H	0.582100	0.708800	0.102500	0.134533
H43	H	0.412100	0.815500	0.041600	0.086024
H44	H	0.377600	0.143900	0.137800	0.086024
H45	H	0.547000	0.045000	0.200700	0.134533
H46	H	0.770800	0.869800	0.213700	0.100385
H47	H	0.750000	0.721300	0.184800	0.100385
H48	H	0.526000	0.673200	0.237600	0.074638
H49	H	0.279300	0.386700	0.106300	-0.279434
H50	H	0.917900	0.208800	0.897500	0.134533
H51	H	0.087900	0.315500	0.958400	0.086024
H52	H	0.122400	0.643900	0.862200	0.086024
H53	H	0.953000	0.545000	0.799300	0.134533
H54	H	0.729200	0.369800	0.786300	0.100385
H55	H	0.750000	0.221300	0.815200	0.100385
H56	H	0.974000	0.173200	0.762400	0.074638
H57	H	0.279300	0.113300	0.393700	-0.279434
H58	H	0.917900	0.291200	0.602500	0.134533
H59	H	0.087900	0.184500	0.541600	0.086024
H60	H	0.122400	0.856100	0.637800	0.086024
H61	H	0.953000	0.955000	0.700700	0.134533
H62	H	0.729200	0.130200	0.713700	0.100385
H63	H	0.750000	0.278700	0.684800	0.100385
H64	H	0.974000	0.326800	0.737600	0.074638
C1	C	0.458100	0.298700	0.610580	-0.222870
C2	C	0.559900	0.362600	0.574450	0.196530
C3	C	0.580100	0.554300	0.630530	0.196530
C4	C	0.478800	0.495800	0.668110	-0.222870
C5	C	0.413700	0.364900	0.658780	0.159633
C6	C	0.307800	0.300500	0.701140	-0.191406
C7	C	0.458100	0.201300	0.889420	-0.222870
C8	C	0.559900	0.137400	0.925550	0.196530
C9	C	0.580100	0.945700	0.869470	0.196530
C10	C	0.478800	0.004200	0.831890	-0.222870
C11	C	0.413700	0.135100	0.841220	0.159633
C12	C	0.307800	0.199500	0.798860	-0.191406
C13	C	0.041900	0.701300	0.110580	-0.222870
C14	C	0.940100	0.637400	0.074450	0.196530
C15	C	0.919900	0.445700	0.130530	0.196530
C16	C	0.021200	0.504200	0.168110	-0.222870
C17	C	0.086300	0.635100	0.158780	0.159633
C18	C	0.192200	0.699500	0.201140	-0.191406
C19	C	0.041900	0.798700	0.389420	-0.222870
C20	C	0.940100	0.862600	0.425550	0.196530
C21	C	0.919900	0.054300	0.369470	0.196530
C22	C	0.021200	0.995800	0.331890	-0.222870
C23	C	0.086300	0.864900	0.341220	0.159633
C24	C	0.192200	0.800500	0.298860	-0.191406
C25	C	0.541900	0.701300	0.389420	-0.222870
C26	C	0.440100	0.637400	0.425550	0.196530
C27	C	0.419900	0.445700	0.369470	0.196530
C28	C	0.521200	0.504200	0.331890	-0.222870
C29	C	0.586300	0.635100	0.341220	0.159633
C30	C	0.692200	0.699500	0.298860	-0.191406
C31	C	0.541900	0.798700	0.110580	-0.222870
C32	C	0.440100	0.862600	0.074450	0.196530
C33	C	0.419900	0.054300	0.130530	0.196530
C34	C	0.521200	0.995800	0.168110	-0.222870
C35	C	0.586300	0.864900	0.158780	0.159633
C36	C	0.692200	0.800500	0.201140	-0.191406
C37	C	0.958100	0.298700	0.889420	-0.222870
C38	C	0.059900	0.362600	0.925550	0.196530
C39	C	0.080100	0.554300	0.869470	0.196530
C40	C	0.978800	0.495800	0.831890	-0.222870
C41	C	0.913700	0.364900	0.841220	0.159633
C42	C	0.807800	0.300500	0.798860	-0.191406
C43	C	0.958100	0.201300	0.610580	-0.222870
C44	C	0.059900	0.137400	0.574450	0.196530
C45	C	0.080100	0.945700	0.630530	0.196530
C46	C	0.978800	0.004200	0.668110	-0.222870
C47	C	0.913700	0.135100	0.658780	0.159633
C48	C	0.807800	0.199500	0.701140	-0.191406
C49	C	0.404800	0.250000	0.750000	-0.076127
C50	C	0.095200	0.750000	0.250000	-0.076127
C51	C	0.595200	0.750000	0.250000	-0.076127
C52	C	0.904800	0.250000	0.750000	-0.076127
N1	N	0.621300	0.489200	0.583910	-0.343935
N2	N	0.621300	0.010800	0.916090	-0.343935
N3	N	0.878700	0.510800	0.083910	-0.343935
N4	N	0.878700	0.989200	0.416090	-0.343935
N5	N	0.378700	0.510800	0.416090	-0.343935
N6	N	0.378700	0.989200	0.083910	-0.343935
N7	N	0.121300	0.489200	0.916090	-0.343935
N8	N	0.121300	0.010800	0.583910	-0.343935
O1	O	0.823900	0.536740	0.462770	-0.847313
O2	O	0.820100	0.277450	0.474050	-0.847313
O3	O	0.037900	0.391370	0.418360	-0.847313
O4	O	0.823900	0.963260	0.037230	-0.847313
O5	O	0.820100	0.222550	0.025950	-0.847313
O6	O	0.037900	0.108630	0.081640	-0.847313
O7	O	0.676100	0.463260	0.962770	-0.847313
O8	O	0.679900	0.722550	0.974050	-0.847313
O9	O	0.462100	0.608630	0.918360	-0.847313
O10	O	0.676100	0.036740	0.537230	-0.847313
O11	O	0.679900	0.777450	0.525950	-0.847313
O12	O	0.462100	0.891370	0.581640	-0.847313
O13	O	0.176100	0.463260	0.537230	-0.847313
O14	O	0.179900	0.722550	0.525950	-0.847313
O15	O	0.962100	0.608630	0.581640	-0.847313
O16	O	0.176100	0.036740	0.962770	-0.847313
O17	O	0.179900	0.777450	0.974050	-0.847313
O18	O	0.962100	0.891370	0.918360	-0.847313
O19	O	0.323900	0.536740	0.037230	-0.847313
O20	O	0.320100	0.277450	0.025950	-0.847313
O21	O	0.537900	0.391370	0.081640	-0.847313
O22	O	0.323900	0.963260	0.462770	-0.847313
O23	O	0.320100	0.222550	0.474050	-0.847313
O24	O	0.537900	0.108630	0.418360	-0.847313
