data_PEVPUD_clean_PM
_symmetry_space_group_name_H-M	'P1'
_cell_length_a	18.201600
_cell_length_b	18.201600
_cell_length_c	18.201600
_cell_angle_alpha	60.000000
_cell_angle_beta	60.000000
_cell_angle_gamma	60.000001
_symmetry_Int_Tables_number 1

loop_
_symmetry_equiv_pos_as_xyz
'x,y,z'

loop_
_atom_site_label
_atom_site_type_symbol
_atom_site_fract_x
_atom_site_fract_y
_atom_site_fract_z
_atom_site_charge
Zn1	Zn	0.543380	0.369860	0.543380	1.110485
Zn2	Zn	0.369860	0.543380	0.543380	1.110485
Zn3	Zn	0.543380	0.543380	0.543380	1.110485
Zn4	Zn	0.543380	0.543380	0.369860	1.110485
Zn5	Zn	0.130290	0.956570	0.956570	1.110485
Zn6	Zn	0.956570	0.130290	0.956570	1.110485
Zn7	Zn	0.956570	0.956570	0.130290	1.110485
Zn8	Zn	0.956570	0.956570	0.956570	1.110485
H1	H	0.314800	0.096800	0.794200	0.109609
H2	H	0.096800	0.314800	0.794200	0.109609
H3	H	0.794200	0.794200	0.314800	0.109609
H4	H	0.794200	0.794200	0.096800	0.109609
H5	H	0.314800	0.794200	0.794200	0.109609
H6	H	0.096800	0.794200	0.794200	0.109609
H7	H	0.794200	0.314800	0.096800	0.109609
H8	H	0.794200	0.096800	0.314800	0.109609
H9	H	0.314800	0.794200	0.096800	0.109609
H10	H	0.096800	0.794200	0.314800	0.109609
H11	H	0.794200	0.096800	0.794200	0.109609
H12	H	0.794200	0.314800	0.794200	0.109609
C1	C	0.330500	0.212500	0.728500	0.031283
C2	C	0.288100	0.158900	0.776500	-0.089101
C3	C	0.212500	0.330500	0.728500	0.031283
C4	C	0.158900	0.288100	0.776500	-0.089101
C5	C	0.728500	0.728500	0.330500	0.031283
C6	C	0.776500	0.776500	0.288100	-0.089101
C7	C	0.728500	0.728500	0.212500	0.031283
C8	C	0.776500	0.776500	0.158900	-0.089101
C9	C	0.330500	0.728500	0.728500	0.031283
C10	C	0.288100	0.776500	0.776500	-0.089101
C11	C	0.212500	0.728500	0.728500	0.031283
C12	C	0.158900	0.776500	0.776500	-0.089101
C13	C	0.728500	0.330500	0.212500	0.031283
C14	C	0.776500	0.288100	0.158900	-0.089101
C15	C	0.728500	0.212500	0.330500	0.031283
C16	C	0.776500	0.158900	0.288100	-0.089101
C17	C	0.330500	0.728500	0.212500	0.031283
C18	C	0.288100	0.776500	0.158900	-0.089101
C19	C	0.212500	0.728500	0.330500	0.031283
C20	C	0.158900	0.776500	0.288100	-0.089101
C21	C	0.728500	0.212500	0.728500	0.031283
C22	C	0.776500	0.158900	0.776500	-0.089101
C23	C	0.728500	0.330500	0.728500	0.031283
C24	C	0.776500	0.288100	0.776500	-0.089101
C25	C	0.304900	0.304900	0.695100	-0.163677
C26	C	0.200700	0.200700	0.799300	-0.032275
C27	C	0.139300	0.139300	0.860700	0.689432
C28	C	0.361700	0.361700	0.638300	0.716614
C29	C	0.695100	0.695100	0.304900	-0.163677
C30	C	0.799300	0.799300	0.200700	-0.032275
C31	C	0.860700	0.860700	0.139300	0.689432
C32	C	0.638300	0.638300	0.361700	0.716614
C33	C	0.304900	0.695100	0.695100	-0.163677
C34	C	0.200700	0.799300	0.799300	-0.032275
C35	C	0.139300	0.860700	0.860700	0.689432
C36	C	0.361700	0.638300	0.638300	0.716614
C37	C	0.695100	0.304900	0.304900	-0.163677
C38	C	0.799300	0.200700	0.200700	-0.032275
C39	C	0.860700	0.139300	0.139300	0.689432
C40	C	0.638300	0.361700	0.361700	0.716614
C41	C	0.304900	0.695100	0.304900	-0.163677
C42	C	0.200700	0.799300	0.200700	-0.032275
C43	C	0.139300	0.860700	0.139300	0.689432
C44	C	0.361700	0.638300	0.361700	0.716614
C45	C	0.695100	0.304900	0.695100	-0.163677
C46	C	0.799300	0.200700	0.799300	-0.032275
C47	C	0.860700	0.139300	0.860700	0.689432
C48	C	0.638300	0.361700	0.638300	0.716614
O1	O	0.178500	0.051700	0.884900	-0.604929
O2	O	0.441500	0.324700	0.616900	-0.599420
O3	O	0.051700	0.178500	0.884900	-0.604929
O4	O	0.324700	0.441500	0.616900	-0.599420
O5	O	0.884900	0.884900	0.178500	-0.604929
O6	O	0.616900	0.616900	0.441500	-0.599420
O7	O	0.884900	0.884900	0.051700	-0.604929
O8	O	0.616900	0.616900	0.324700	-0.599420
O9	O	0.178500	0.884900	0.884900	-0.604929
O10	O	0.441500	0.616900	0.616900	-0.599420
O11	O	0.051700	0.884900	0.884900	-0.604929
O12	O	0.324700	0.616900	0.616900	-0.599420
O13	O	0.884900	0.178500	0.051700	-0.604929
O14	O	0.616900	0.441500	0.324700	-0.599420
O15	O	0.884900	0.051700	0.178500	-0.604929
O16	O	0.616900	0.324700	0.441500	-0.599420
O17	O	0.178500	0.884900	0.051700	-0.604929
O18	O	0.441500	0.616900	0.324700	-0.599420
O19	O	0.051700	0.884900	0.178500	-0.604929
O20	O	0.324700	0.616900	0.441500	-0.599420
O21	O	0.884900	0.051700	0.884900	-0.604929
O22	O	0.616900	0.324700	0.616900	-0.599420
O23	O	0.884900	0.178500	0.884900	-0.604929
O24	O	0.616900	0.441500	0.616900	-0.599420
O25	O	0.000000	0.000000	0.000000	-1.156877
O26	O	0.500000	0.500000	0.500000	-1.156877
