data_PEXBIF_clean_PM
_symmetry_space_group_name_H-M	'P1'
_cell_length_a	12.262400
_cell_length_b	12.262400
_cell_length_c	16.375000
_cell_angle_alpha	102.373299
_cell_angle_beta	109.472902
_cell_angle_gamma	105.585998
_symmetry_Int_Tables_number 1

loop_
_symmetry_equiv_pos_as_xyz
'x,y,z'

loop_
_atom_site_label
_atom_site_type_symbol
_atom_site_fract_x
_atom_site_fract_y
_atom_site_fract_z
_atom_site_charge
Cd1	Cd	0.830950	0.456910	0.631440	0.921360
Cd2	Cd	0.325470	0.199510	0.868560	0.921360
Cd3	Cd	0.169050	0.543090	0.368560	0.921360
Cd4	Cd	0.674530	0.800490	0.131440	0.921360
H1	H	0.145300	0.688100	0.583600	0.095581
H2	H	0.297100	0.845800	0.573900	0.128977
H3	H	0.361800	0.040300	0.679500	0.080264
H4	H	0.552900	0.286600	0.490100	0.099929
H5	H	0.755500	0.585500	0.482800	0.112105
H6	H	0.558300	0.515700	0.358600	0.133720
H7	H	0.358700	0.235500	0.372800	0.097033
H8	H	0.333600	0.334200	0.330200	0.097033
H9	H	0.411600	0.271800	0.219000	0.080765
H10	H	0.301500	0.162600	0.209100	0.080765
H11	H	0.052700	0.944000	0.553700	0.080765
H12	H	0.123400	0.055600	0.535200	0.080765
H13	H	0.126900	0.121600	0.682500	0.097033
H14	H	0.982600	0.060400	0.644200	0.097033
H15	H	0.867200	0.196100	0.624100	0.099929
H16	H	0.111600	0.474600	0.625200	0.112105
H17	H	0.200300	0.320400	0.629500	0.133720
H18	H	0.604500	0.561700	0.916400	0.095581
H19	H	0.771900	0.723200	0.926100	0.128977
H20	H	0.860800	0.682300	0.820500	0.080264
H21	H	0.296500	0.062800	0.009900	0.099929
H22	H	0.602700	0.272700	0.017200	0.112105
H23	H	0.657100	0.199700	0.141400	0.133720
H24	H	0.362700	0.985900	0.127200	0.097033
H25	H	0.504000	0.003400	0.169800	0.097033
H26	H	0.552800	0.192600	0.281000	0.080765
H27	H	0.453500	0.092400	0.290900	0.080765
H28	H	0.890300	0.499000	0.946300	0.080765
H29	H	0.020400	0.588200	0.964800	0.080765
H30	H	0.939100	0.444400	0.817500	0.097033
H31	H	0.916200	0.338400	0.855800	0.097033
H32	H	0.072000	0.243100	0.875900	0.099929
H33	H	0.349400	0.486400	0.874800	0.112105
H34	H	0.190900	0.570800	0.870500	0.133720
H35	H	0.854700	0.311900	0.416400	0.095581
H36	H	0.702900	0.154200	0.426100	0.128977
H37	H	0.638200	0.959700	0.320500	0.080264
H38	H	0.447100	0.713400	0.509900	0.099929
H39	H	0.244500	0.414500	0.517200	0.112105
H40	H	0.441700	0.484300	0.641400	0.133720
H41	H	0.641300	0.764500	0.627200	0.097033
H42	H	0.666400	0.665800	0.669800	0.097033
H43	H	0.588400	0.728200	0.781000	0.080765
H44	H	0.698500	0.837400	0.790900	0.080765
H45	H	0.947300	0.056000	0.446300	0.080765
H46	H	0.876600	0.944400	0.464800	0.080765
H47	H	0.873100	0.878400	0.317500	0.097033
H48	H	0.017400	0.939600	0.355800	0.097033
H49	H	0.132800	0.803900	0.375900	0.099929
H50	H	0.888400	0.525400	0.374800	0.112105
H51	H	0.799700	0.679600	0.370500	0.133720
H52	H	0.395500	0.438300	0.083600	0.095581
H53	H	0.228100	0.276800	0.073900	0.128977
H54	H	0.139200	0.317700	0.179500	0.080264
H55	H	0.703500	0.937200	0.990100	0.099929
H56	H	0.397300	0.727300	0.982800	0.112105
H57	H	0.342900	0.800300	0.858600	0.133720
H58	H	0.637300	0.014100	0.872800	0.097033
H59	H	0.496000	0.996600	0.830200	0.097033
H60	H	0.447200	0.807400	0.719000	0.080765
H61	H	0.546500	0.907600	0.709100	0.080765
H62	H	0.109700	0.501000	0.053700	0.080765
H63	H	0.979600	0.411800	0.035200	0.080765
H64	H	0.060900	0.555600	0.182500	0.097033
H65	H	0.083800	0.661600	0.144200	0.097033
H66	H	0.928000	0.756900	0.124100	0.099929
H67	H	0.650600	0.513600	0.125200	0.112105
H68	H	0.809100	0.429200	0.129500	0.133720
C1	C	0.026800	0.689600	0.693200	0.639132
C2	C	0.122600	0.797200	0.689400	-0.152864
C3	C	0.172800	0.766900	0.621900	0.018017
C4	C	0.263100	0.859400	0.616300	-0.184724
C5	C	0.300200	0.978200	0.681000	0.176630
C6	C	0.159100	0.921800	0.752100	0.086933
C7	C	0.103800	0.966800	0.817600	0.588574
C8	C	0.577300	0.352200	0.471500	0.124879
C9	C	0.688800	0.515500	0.467700	0.046996
C10	C	0.583200	0.478700	0.401700	-0.169874
C11	C	0.388900	0.290600	0.343700	-0.047088
C12	C	0.387100	0.215000	0.248700	-0.148113
C13	C	0.047600	0.016800	0.541200	-0.148113
C14	C	0.049300	0.104500	0.631000	-0.047088
C15	C	0.939200	0.247000	0.624800	0.124879
C16	C	0.072300	0.398300	0.625200	0.046996
C17	C	0.122400	0.314300	0.627900	-0.169874
C18	C	0.496400	0.333600	0.806800	0.639132
C19	C	0.607800	0.433200	0.810600	-0.152864
C20	C	0.645000	0.550900	0.878100	0.018017
C21	C	0.743100	0.646800	0.883700	-0.184724
C22	C	0.797200	0.619200	0.819000	0.176630
C23	C	0.669700	0.407000	0.747900	0.086933
C24	C	0.649200	0.286200	0.682400	0.588574
C25	C	0.380700	0.105800	0.028500	0.124879
C26	C	0.547800	0.221100	0.032300	0.046996
C27	C	0.577000	0.181500	0.098300	-0.169874
C28	C	0.446900	0.045200	0.156300	-0.047088
C29	C	0.466300	0.138400	0.251300	-0.148113
C30	C	0.975600	0.506400	0.958800	-0.148113
C31	C	0.973500	0.418300	0.869000	-0.047088
C32	C	0.122200	0.314400	0.875200	0.124879
C33	C	0.273100	0.447100	0.874800	0.046996
C34	C	0.186400	0.494500	0.872100	-0.169874
C35	C	0.973200	0.310400	0.306800	0.639132
C36	C	0.877400	0.202800	0.310600	-0.152864
C37	C	0.827200	0.233100	0.378100	0.018017
C38	C	0.736900	0.140600	0.383700	-0.184724
C39	C	0.699800	0.021800	0.319000	0.176630
C40	C	0.840900	0.078200	0.247900	0.086933
C41	C	0.896200	0.033200	0.182400	0.588574
C42	C	0.422700	0.647800	0.528500	0.124879
C43	C	0.311200	0.484500	0.532300	0.046996
C44	C	0.416800	0.521300	0.598300	-0.169874
C45	C	0.611100	0.709400	0.656300	-0.047088
C46	C	0.612900	0.785000	0.751300	-0.148113
C47	C	0.952400	0.983200	0.458800	-0.148113
C48	C	0.950700	0.895500	0.369000	-0.047088
C49	C	0.060800	0.753000	0.375200	0.124879
C50	C	0.927700	0.601700	0.374800	0.046996
C51	C	0.877600	0.685700	0.372100	-0.169874
C52	C	0.503600	0.666400	0.193200	0.639132
C53	C	0.392200	0.566800	0.189400	-0.152864
C54	C	0.355000	0.449100	0.121900	0.018017
C55	C	0.256900	0.353200	0.116300	-0.184724
C56	C	0.202800	0.380800	0.181000	0.176630
C57	C	0.330300	0.593000	0.252100	0.086933
C58	C	0.350800	0.713800	0.317600	0.588574
C59	C	0.619300	0.894200	0.971500	0.124879
C60	C	0.452200	0.778900	0.967700	0.046996
C61	C	0.423000	0.818500	0.901700	-0.169874
C62	C	0.553100	0.954800	0.843700	-0.047088
C63	C	0.533700	0.861600	0.748700	-0.148113
C64	C	0.024400	0.493600	0.041200	-0.148113
C65	C	0.026500	0.581700	0.131000	-0.047088
C66	C	0.877800	0.685600	0.124800	0.124879
C67	C	0.726900	0.552900	0.125200	0.046996
C68	C	0.813600	0.505500	0.127900	-0.169874
N1	N	0.687700	0.439000	0.510500	-0.386962
N2	N	0.511800	0.373700	0.405500	0.070118
N3	N	0.037100	0.219400	0.627900	0.070118
N4	N	0.958400	0.357700	0.622500	-0.386962
N5	N	0.251100	0.008700	0.746800	-0.358627
N6	N	0.428500	0.177200	0.989500	-0.386962
N7	N	0.468200	0.106300	0.094500	0.070118
N8	N	0.091500	0.409200	0.872100	0.070118
N9	N	0.235200	0.335900	0.877500	-0.386962
N10	N	0.761900	0.504300	0.753200	-0.358627
N11	N	0.312300	0.561000	0.489500	-0.386962
N12	N	0.488200	0.626300	0.594500	0.070118
N13	N	0.962900	0.780600	0.372100	0.070118
N14	N	0.041600	0.642300	0.377500	-0.386962
N15	N	0.748900	0.991300	0.253200	-0.358627
N16	N	0.571500	0.822800	0.010500	-0.386962
N17	N	0.531800	0.893700	0.905500	0.070118
N18	N	0.908500	0.590800	0.127900	0.070118
N19	N	0.764800	0.664100	0.122500	-0.386962
N20	N	0.238100	0.495700	0.246800	-0.358627
O1	O	0.932900	0.637700	0.630600	-0.622602
O2	O	0.053100	0.660300	0.758400	-0.603410
O3	O	0.153500	0.073300	0.881600	-0.607397
O4	O	0.003000	0.895300	0.809900	-0.588456
O5	O	0.507100	0.302300	0.869400	-0.622602
O6	O	0.401900	0.294700	0.741600	-0.603410
O7	O	0.691700	0.271900	0.618400	-0.607397
O8	O	0.585400	0.193100	0.690100	-0.588456
O9	O	0.067100	0.362300	0.369400	-0.622602
O10	O	0.946900	0.339700	0.241600	-0.603410
O11	O	0.846500	0.926700	0.118400	-0.607397
O12	O	0.997000	0.104700	0.190100	-0.588456
O13	O	0.492900	0.697700	0.130600	-0.622602
O14	O	0.598100	0.705300	0.258400	-0.603410
O15	O	0.308300	0.728100	0.381600	-0.607397
O16	O	0.414600	0.806900	0.309900	-0.588456
