data_PUNFIO_clean_PM
_symmetry_space_group_name_H-M	'P1'
_cell_length_a	7.509000
_cell_length_b	11.881000
_cell_length_c	20.942000
_cell_angle_alpha	96.623000
_cell_angle_beta	92.474002
_cell_angle_gamma	102.014997
_symmetry_Int_Tables_number 1

loop_
_symmetry_equiv_pos_as_xyz
'x,y,z'

loop_
_atom_site_label
_atom_site_type_symbol
_atom_site_fract_x
_atom_site_fract_y
_atom_site_fract_z
_atom_site_charge
Cd1	Cd	0.651690	0.853640	0.095780	1.126568
Cd2	Cd	0.748800	0.019800	0.478120	1.000910
Cd3	Cd	0.393730	0.171810	0.084650	1.163840
Cd4	Cd	0.348310	0.146360	0.904220	1.126568
Cd5	Cd	0.251200	0.980200	0.521880	1.000910
Cd6	Cd	0.606270	0.828190	0.915350	1.163840
Cd7	Cd	0.000000	0.000000	0.000000	1.203591
H1	H	0.054600	0.793800	0.142100	0.099955
H2	H	0.599300	0.561500	0.128000	0.115457
H3	H	0.840400	0.469200	0.163000	0.133670
H4	H	0.224800	0.548400	0.158600	0.125537
H5	H	0.285300	0.683600	0.165600	0.125537
H6	H	0.988200	0.659400	0.272700	0.125537
H7	H	0.138400	0.771600	0.271400	0.125537
H8	H	0.968500	0.572400	0.390500	0.133670
H9	H	0.030300	0.684700	0.496000	0.111764
H10	H	0.267700	0.882100	0.375300	0.099973
H11	H	0.068500	0.464800	0.261600	0.125537
H12	H	0.211000	0.505800	0.320800	0.125537
H13	H	0.526700	0.438600	0.312400	0.133670
H14	H	0.174600	0.351100	0.160800	0.099793
H15	H	0.636000	0.303400	0.234400	0.113726
H16	H	0.626900	0.891600	0.325600	0.099973
H17	H	0.644400	0.722800	0.474000	0.111764
H18	H	0.473100	0.586400	0.387300	0.133670
H19	H	0.468300	0.745600	0.241600	0.125537
H20	H	0.512300	0.624700	0.248400	0.125537
H21	H	0.936500	0.059600	0.269500	0.098472
H22	H	0.551100	0.070400	0.297700	0.098472
H23	H	0.294900	0.481300	0.020200	0.098472
H24	H	0.661000	0.012000	0.019000	0.431244
H25	H	0.945400	0.206200	0.857900	0.099955
H26	H	0.400700	0.438500	0.872000	0.115457
H27	H	0.159600	0.530800	0.837000	0.133670
H28	H	0.775200	0.451600	0.841400	0.125537
H29	H	0.714700	0.316400	0.834400	0.125537
H30	H	0.011800	0.340600	0.727300	0.125537
H31	H	0.861600	0.228400	0.728600	0.125537
H32	H	0.031500	0.427600	0.609500	0.133670
H33	H	0.969700	0.315300	0.504000	0.111764
H34	H	0.732300	0.117900	0.624700	0.099973
H35	H	0.931500	0.535200	0.738400	0.125537
H36	H	0.789000	0.494200	0.679200	0.125537
H37	H	0.473300	0.561400	0.687600	0.133670
H38	H	0.825400	0.648900	0.839200	0.099793
H39	H	0.364000	0.696600	0.765600	0.113726
H40	H	0.373100	0.108400	0.674400	0.099973
H41	H	0.355600	0.277200	0.526000	0.111764
H42	H	0.526900	0.413600	0.612700	0.133670
H43	H	0.531700	0.254400	0.758400	0.125537
H44	H	0.487700	0.375300	0.751600	0.125537
H45	H	0.063500	0.940400	0.730500	0.098472
H46	H	0.448900	0.929600	0.702300	0.098472
H47	H	0.705100	0.518700	0.979800	0.098472
H48	H	0.339000	0.988000	0.981000	0.431244
C1	C	0.970000	0.724600	0.142860	0.133274
C2	C	0.721900	0.597800	0.135400	0.052453
C3	C	0.854500	0.545600	0.154500	-0.170286
C4	C	0.200100	0.619900	0.179980	-0.122652
C5	C	0.238800	0.623200	0.254230	0.141890
C6	C	0.113300	0.696700	0.287200	-0.122652
C7	C	0.036700	0.647900	0.400000	-0.171854
C8	C	0.070400	0.710700	0.457800	0.041045
C9	C	0.200900	0.818700	0.392200	0.124596
C10	C	0.195600	0.499700	0.274200	-0.122652
C11	C	0.469200	0.405100	0.272500	-0.170975
C12	C	0.276500	0.356100	0.188700	0.129962
C13	C	0.529000	0.330200	0.229300	0.047296
C14	C	0.609900	0.832900	0.352000	0.124596
C15	C	0.618300	0.739900	0.432900	0.041045
C16	C	0.525000	0.664000	0.385300	-0.171854
C17	C	0.444200	0.680400	0.266290	-0.122652
C18	C	0.438000	0.131400	0.409200	0.645360
C19	C	0.331400	0.092800	0.344780	-0.113947
C20	C	0.142200	0.083300	0.337080	-0.112460
C21	C	0.060400	0.060500	0.275200	-0.051929
C22	C	0.155100	0.039000	0.221120	-0.143218
C23	C	0.341600	0.036500	0.229320	-0.114906
C24	C	0.426600	0.067200	0.291770	-0.057218
C25	C	0.449800	0.991900	0.177120	0.667704
C26	C	0.047300	0.015600	0.156700	0.700559
C27	C	0.023700	0.085700	0.393400	0.647505
C28	C	0.311500	0.694900	0.005800	0.667704
C29	C	0.145300	0.596800	0.003780	-0.120020
C30	C	0.966300	0.609200	0.991120	-0.118266
C31	C	0.175700	0.489100	0.012100	-0.060189
C32	C	0.917400	0.723700	0.985900	0.676775
C33	C	0.030000	0.275400	0.857140	0.133274
C34	C	0.278100	0.402200	0.864600	0.052453
C35	C	0.145500	0.454400	0.845500	-0.170286
C36	C	0.799900	0.380100	0.820020	-0.122652
C37	C	0.761200	0.376800	0.745770	0.141890
C38	C	0.886700	0.303300	0.712800	-0.122652
C39	C	0.963300	0.352100	0.600000	-0.171854
C40	C	0.929600	0.289300	0.542200	0.041045
C41	C	0.799100	0.181300	0.607800	0.124596
C42	C	0.804400	0.500300	0.725800	-0.122652
C43	C	0.530800	0.594900	0.727500	-0.170975
C44	C	0.723500	0.643900	0.811300	0.129962
C45	C	0.471000	0.669800	0.770700	0.047296
C46	C	0.390100	0.167100	0.648000	0.124596
C47	C	0.381700	0.260100	0.567100	0.041045
C48	C	0.475000	0.336000	0.614700	-0.171854
C49	C	0.555800	0.319600	0.733710	-0.122652
C50	C	0.562000	0.868600	0.590800	0.645360
C51	C	0.668600	0.907200	0.655220	-0.113947
C52	C	0.857800	0.916700	0.662920	-0.112460
C53	C	0.939600	0.939500	0.724800	-0.051929
C54	C	0.844900	0.961000	0.778880	-0.143218
C55	C	0.658400	0.963500	0.770680	-0.114906
C56	C	0.573400	0.932800	0.708230	-0.057218
C57	C	0.550200	0.008100	0.822880	0.667704
C58	C	0.952700	0.984400	0.843300	0.700559
C59	C	0.976300	0.914300	0.606600	0.647505
C60	C	0.688500	0.305100	0.994200	0.667704
C61	C	0.854700	0.403200	0.996220	-0.120020
C62	C	0.033700	0.390800	0.008880	-0.118266
C63	C	0.824300	0.510900	0.987900	-0.060189
C64	C	0.082600	0.276300	0.014100	0.676775
N1	N	0.791700	0.711700	0.128320	-0.401636
N2	N	0.014300	0.627400	0.158710	0.079542
N3	N	0.307800	0.422200	0.246470	0.079523
N4	N	0.404800	0.300300	0.176470	-0.398014
N5	N	0.670400	0.846900	0.412790	-0.400701
N6	N	0.519900	0.722500	0.332420	0.079792
N7	N	0.171200	0.817700	0.453210	-0.400701
N8	N	0.123600	0.717400	0.356950	0.079792
N9	N	0.208300	0.288300	0.871680	-0.401636
N10	N	0.985700	0.372600	0.841290	0.079542
N11	N	0.692200	0.577800	0.753530	0.079523
N12	N	0.595200	0.699700	0.823530	-0.398014
N13	N	0.329600	0.153100	0.587210	-0.400701
N14	N	0.480100	0.277500	0.667580	0.079792
N15	N	0.828800	0.182300	0.546790	-0.400701
N16	N	0.876400	0.282600	0.643050	0.079792
O1	O	0.082200	0.072500	0.447400	-0.627745
O2	O	0.860100	0.095600	0.381530	-0.627745
O3	O	0.495700	0.237000	0.422440	-0.583751
O4	O	0.468200	0.053100	0.442190	-0.668277
O5	O	0.880200	0.979400	0.157080	-0.591837
O6	O	0.131500	0.034600	0.106930	-0.682433
O7	O	0.468000	0.889500	0.178550	-0.617191
O8	O	0.524400	0.052800	0.137060	-0.627773
O9	O	0.406200	0.718200	0.057280	-0.617191
O10	O	0.345200	0.738800	0.954170	-0.627773
O11	O	0.760200	0.717300	0.961570	-0.627744
O12	O	0.029400	0.814800	0.006320	-0.649329
O13	O	0.695500	0.947400	0.011550	-0.953997
O14	O	0.917800	0.927500	0.552600	-0.627745
O15	O	0.139900	0.904400	0.618470	-0.627745
O16	O	0.504300	0.763000	0.577560	-0.583751
O17	O	0.531800	0.946900	0.557810	-0.668277
O18	O	0.119800	0.020600	0.842920	-0.591837
O19	O	0.868500	0.965400	0.893070	-0.682433
O20	O	0.532000	0.110500	0.821450	-0.617191
O21	O	0.475600	0.947200	0.862940	-0.627773
O22	O	0.593800	0.281800	0.942720	-0.617191
O23	O	0.654800	0.261200	0.045830	-0.627773
O24	O	0.239800	0.282700	0.038430	-0.627744
O25	O	0.970600	0.185200	0.993680	-0.649329
O26	O	0.304500	0.052600	0.988450	-0.953997
