data_PURJIW_clean_PM
_symmetry_space_group_name_H-M	'P1'
_cell_length_a	12.458000
_cell_length_b	17.208900
_cell_length_c	28.387300
_cell_angle_alpha	81.600401
_cell_angle_beta	77.324500
_cell_angle_gamma	68.779101
_symmetry_Int_Tables_number 1

loop_
_symmetry_equiv_pos_as_xyz
'x,y,z'

loop_
_atom_site_label
_atom_site_type_symbol
_atom_site_fract_x
_atom_site_fract_y
_atom_site_fract_z
_atom_site_charge
Zn1	Zn	0.720550	0.863690	0.828210	1.076956
Zn2	Zn	0.796280	0.430840	0.256220	1.084473
Zn3	Zn	0.587550	0.363690	0.328210	1.076956
Zn4	Zn	0.516660	0.930840	0.756220	1.084473
Zn5	Zn	0.412450	0.636310	0.671790	1.076956
Zn6	Zn	0.483340	0.069160	0.243780	1.084473
Zn7	Zn	0.279450	0.136310	0.171790	1.076956
Zn8	Zn	0.203720	0.569160	0.743780	1.084473
H1	H	0.881400	0.047300	0.760500	0.094810
H2	H	0.941000	0.157900	0.720500	0.127789
H3	H	0.641200	0.251600	0.664600	0.127789
H4	H	0.584400	0.139900	0.705100	0.094810
H5	H	0.957200	0.290900	0.685100	0.070065
H6	H	0.998700	0.225900	0.643900	0.070065
H7	H	0.634700	0.705800	0.687200	0.094810
H8	H	0.715600	0.578600	0.653000	0.127789
H9	H	0.971700	0.507200	0.734000	0.127789
H10	H	0.888200	0.635800	0.768200	0.094810
H11	H	0.363400	0.224800	0.429800	0.095193
H12	H	0.233800	0.200100	0.500100	0.127789
H13	H	0.226800	0.409200	0.550600	0.127789
H14	H	0.348400	0.433900	0.480900	0.095193
H15	H	0.719900	0.340700	0.441900	0.094810
H16	H	0.781500	0.329400	0.514800	0.127789
H17	H	0.013800	0.443000	0.449400	0.127789
H18	H	0.954300	0.452100	0.376100	0.094810
H19	H	0.819000	0.349700	0.579500	0.070065
H20	H	0.942000	0.276600	0.565000	0.070065
H21	H	0.104100	0.346600	0.632000	0.070065
H22	H	0.072300	0.406100	0.584300	0.070065
H23	H	0.784100	0.433900	0.645300	0.070065
H24	H	0.861100	0.479500	0.606500	0.070065
H25	H	0.310800	0.547300	0.260500	0.094810
H26	H	0.180600	0.657900	0.220500	0.127789
H27	H	0.442600	0.751600	0.164600	0.127789
H28	H	0.570600	0.639900	0.205100	0.094810
H29	H	0.066800	0.790900	0.185100	0.070065
H30	H	0.131500	0.725900	0.143900	0.070065
H31	H	0.972300	0.205800	0.187200	0.094810
H32	H	0.052800	0.078600	0.153000	0.127789
H33	H	0.787100	0.007200	0.234000	0.127789
H34	H	0.707800	0.135800	0.268200	0.094810
H35	H	0.982000	0.724800	0.929800	0.095193
H36	H	0.066000	0.700100	0.000100	0.127789
H37	H	0.813400	0.909200	0.050600	0.127789
H38	H	0.736800	0.933900	0.980900	0.095193
H39	H	0.497500	0.840700	0.941900	0.094810
H40	H	0.374300	0.829400	0.014800	0.127789
H41	H	0.093800	0.943000	0.949400	0.127789
H42	H	0.217500	0.952100	0.876100	0.094810
H43	H	0.251800	0.849700	0.079500	0.070065
H44	H	0.216400	0.776600	0.065000	0.070065
H45	H	0.917300	0.846600	0.132000	0.070065
H46	H	0.937300	0.906100	0.084300	0.070065
H47	H	0.136700	0.933900	0.145300	0.070065
H48	H	0.052900	0.979500	0.106500	0.070065
H49	H	0.689200	0.452700	0.739500	0.094810
H50	H	0.819400	0.342100	0.779500	0.127789
H51	H	0.557400	0.248400	0.835400	0.127789
H52	H	0.429400	0.360100	0.794900	0.094810
H53	H	0.933200	0.209100	0.814900	0.070065
H54	H	0.868500	0.274100	0.856100	0.070065
H55	H	0.027700	0.794200	0.812800	0.094810
H56	H	0.947200	0.921400	0.847000	0.127789
H57	H	0.212900	0.992800	0.766000	0.127789
H58	H	0.292200	0.864200	0.731800	0.094810
H59	H	0.018000	0.275200	0.070200	0.095193
H60	H	0.934000	0.299900	0.999900	0.127789
H61	H	0.186600	0.090800	0.949400	0.127789
H62	H	0.263200	0.066100	0.019100	0.095193
H63	H	0.502500	0.159300	0.058100	0.094810
H64	H	0.625700	0.170600	0.985200	0.127789
H65	H	0.906200	0.057000	0.050600	0.127789
H66	H	0.782500	0.047900	0.123900	0.094810
H67	H	0.748200	0.150300	0.920500	0.070065
H68	H	0.783600	0.223400	0.935000	0.070065
H69	H	0.082700	0.153400	0.868000	0.070065
H70	H	0.062700	0.093900	0.915700	0.070065
H71	H	0.863300	0.066100	0.854700	0.070065
H72	H	0.947100	0.020500	0.893500	0.070065
H73	H	0.118600	0.952700	0.239500	0.094810
H74	H	0.059000	0.842100	0.279500	0.127789
H75	H	0.358800	0.748400	0.335400	0.127789
H76	H	0.415600	0.860100	0.294900	0.094810
H77	H	0.042800	0.709100	0.314900	0.070065
H78	H	0.001300	0.774100	0.356100	0.070065
H79	H	0.365300	0.294200	0.312800	0.094810
H80	H	0.284400	0.421400	0.347000	0.127789
H81	H	0.028300	0.492800	0.266000	0.127789
H82	H	0.111800	0.364200	0.231800	0.094810
H83	H	0.636600	0.775200	0.570200	0.095193
H84	H	0.766200	0.799900	0.499900	0.127789
H85	H	0.773200	0.590800	0.449400	0.127789
H86	H	0.651600	0.566100	0.519100	0.095193
H87	H	0.280100	0.659300	0.558100	0.094810
H88	H	0.218500	0.670600	0.485200	0.127789
H89	H	0.986200	0.557000	0.550600	0.127789
H90	H	0.045700	0.547900	0.623900	0.094810
H91	H	0.181000	0.650300	0.420500	0.070065
H92	H	0.058000	0.723400	0.435000	0.070065
H93	H	0.895900	0.653400	0.368000	0.070065
H94	H	0.927700	0.593900	0.415700	0.070065
H95	H	0.215900	0.566100	0.354700	0.070065
H96	H	0.138900	0.520500	0.393500	0.070065
C1	C	0.688920	0.012040	0.761320	0.705620
C2	C	0.726690	0.083500	0.736920	-0.198491
C3	C	0.832800	0.088790	0.741010	0.016935
C4	C	0.869150	0.153880	0.717020	-0.255102
C5	C	0.798000	0.212940	0.687860	0.288333
C6	C	0.690510	0.209640	0.683740	-0.255102
C7	C	0.656690	0.143630	0.708190	0.016935
C8	C	0.940810	0.279970	0.654610	0.059405
C9	C	0.946360	0.350740	0.615540	-0.032424
C10	C	0.705180	0.767230	0.751610	0.705620
C11	C	0.754300	0.684870	0.730530	-0.198491
C12	C	0.703660	0.665540	0.696540	0.016935
C13	C	0.751140	0.590000	0.676320	-0.255102
C14	C	0.850280	0.530770	0.689870	0.288333
C15	C	0.903180	0.547710	0.724530	-0.255102
C16	C	0.853760	0.624350	0.744530	0.016935
C17	C	0.449410	0.350410	0.402970	0.635296
C18	C	0.366590	0.332270	0.448550	-0.159963
C19	C	0.334070	0.263050	0.454410	0.011258
C20	C	0.257470	0.247640	0.496420	-0.253080
C21	C	0.218250	0.303060	0.531840	0.288333
C22	C	0.253380	0.371470	0.525770	-0.253080
C23	C	0.325890	0.385870	0.484550	0.011258
C24	C	0.793300	0.401210	0.354790	0.705620
C25	C	0.780000	0.361460	0.443340	0.016935
C26	C	0.815630	0.355410	0.486730	-0.255102
C27	C	0.901450	0.387320	0.489380	0.288333
C28	C	0.953570	0.422370	0.447890	-0.255102
C29	C	0.918320	0.427630	0.404330	0.016935
C30	C	0.905030	0.336020	0.572320	0.059405
C31	C	0.072040	0.352270	0.602250	0.059405
C32	C	0.864240	0.435550	0.633370	0.059405
C33	C	0.831360	0.397680	0.401400	-0.198491
C34	C	0.537720	0.512040	0.261320	0.705620
C35	C	0.452890	0.583500	0.236920	-0.198491
C36	C	0.337400	0.588790	0.241010	0.016935
C37	C	0.259950	0.653880	0.217020	-0.255102
C38	C	0.301200	0.712940	0.187860	0.288333
C39	C	0.416110	0.709640	0.183740	-0.255102
C40	C	0.491490	0.643630	0.208190	0.016935
C41	C	0.124610	0.779970	0.154610	0.059405
C42	C	0.087360	0.850740	0.115540	-0.032424
C43	C	0.775980	0.267230	0.251610	0.705620
C44	C	0.830300	0.184870	0.230530	-0.198491
C45	C	0.934260	0.165540	0.196540	0.016935
C46	C	0.982540	0.090000	0.176320	-0.255102
C47	C	0.929080	0.030770	0.189870	0.288333
C48	C	0.824580	0.047710	0.224530	-0.255102
C49	C	0.777360	0.124350	0.244530	0.016935
C50	C	0.797210	0.850410	0.902970	0.635296
C51	C	0.852590	0.832270	0.948550	-0.159963
C52	C	0.948470	0.763050	0.954410	0.011258
C53	C	0.998470	0.747640	0.996420	-0.253080
C54	C	0.946850	0.803060	0.031840	0.288333
C55	C	0.849380	0.871470	0.025770	-0.253080
C56	C	0.803690	0.885870	0.984550	0.011258
C57	C	0.450700	0.901210	0.854790	0.705620
C58	C	0.415200	0.861460	0.943340	0.016935
C59	C	0.342230	0.855410	0.986730	-0.255102
C60	C	0.221850	0.887320	0.989380	0.288333
C61	C	0.176170	0.922370	0.947890	-0.255102
C62	C	0.249720	0.927630	0.904330	0.016935
C63	C	0.186630	0.836020	0.072320	0.059405
C64	C	0.973440	0.852270	0.102250	0.059405
C65	C	0.066840	0.935550	0.133370	0.059405
C66	C	0.369560	0.897680	0.901400	-0.198491
C67	C	0.462280	0.487960	0.738680	0.705620
C68	C	0.547110	0.416500	0.763080	-0.198491
C69	C	0.662600	0.411210	0.758990	0.016935
C70	C	0.740050	0.346120	0.782980	-0.255102
C71	C	0.698800	0.287060	0.812140	0.288333
C72	C	0.583890	0.290360	0.816260	-0.255102
C73	C	0.508510	0.356370	0.791810	0.016935
C74	C	0.875390	0.220030	0.845390	0.059405
C75	C	0.912640	0.149260	0.884460	-0.032424
C76	C	0.224020	0.732770	0.748390	0.705620
C77	C	0.169700	0.815130	0.769470	-0.198491
C78	C	0.065740	0.834460	0.803460	0.016935
C79	C	0.017460	0.910000	0.823680	-0.255102
C80	C	0.070920	0.969230	0.810130	0.288333
C81	C	0.175420	0.952290	0.775470	-0.255102
C82	C	0.222640	0.875650	0.755470	0.016935
C83	C	0.202790	0.149590	0.097030	0.635296
C84	C	0.147410	0.167730	0.051450	-0.159963
C85	C	0.051530	0.236950	0.045590	0.011258
C86	C	0.001530	0.252360	0.003580	-0.253080
C87	C	0.053150	0.196940	0.968160	0.288333
C88	C	0.150620	0.128530	0.974230	-0.253080
C89	C	0.196310	0.114130	0.015450	0.011258
C90	C	0.549300	0.098790	0.145210	0.705620
C91	C	0.584800	0.138540	0.056660	0.016935
C92	C	0.657770	0.144590	0.013270	-0.255102
C93	C	0.778150	0.112680	0.010620	0.288333
C94	C	0.823830	0.077630	0.052110	-0.255102
C95	C	0.750280	0.072370	0.095670	0.016935
C96	C	0.813370	0.163980	0.927680	0.059405
C97	C	0.026560	0.147730	0.897750	0.059405
C98	C	0.933160	0.064450	0.866630	0.059405
C99	C	0.630440	0.102320	0.098600	-0.198491
C100	C	0.311080	0.987960	0.238680	0.705620
C101	C	0.273310	0.916500	0.263080	-0.198491
C102	C	0.167200	0.911210	0.258990	0.016935
C103	C	0.130850	0.846120	0.282980	-0.255102
C104	C	0.202000	0.787060	0.312140	0.288333
C105	C	0.309490	0.790360	0.316260	-0.255102
C106	C	0.343310	0.856370	0.291810	0.016935
C107	C	0.059190	0.720030	0.345390	0.059405
C108	C	0.053640	0.649260	0.384460	-0.032424
C109	C	0.294820	0.232770	0.248390	0.705620
C110	C	0.245700	0.315130	0.269470	-0.198491
C111	C	0.296340	0.334460	0.303460	0.016935
C112	C	0.248860	0.410000	0.323680	-0.255102
C113	C	0.149720	0.469230	0.310130	0.288333
C114	C	0.096820	0.452290	0.275470	-0.255102
C115	C	0.146240	0.375650	0.255470	0.016935
C116	C	0.550590	0.649590	0.597030	0.635296
C117	C	0.633410	0.667730	0.551450	-0.159963
C118	C	0.665930	0.736950	0.545590	0.011258
C119	C	0.742530	0.752360	0.503580	-0.253080
C120	C	0.781750	0.696940	0.468160	0.288333
C121	C	0.746620	0.628530	0.474230	-0.253080
C122	C	0.674110	0.614130	0.515450	0.011258
C123	C	0.206700	0.598790	0.645210	0.705620
C124	C	0.220000	0.638540	0.556660	0.016935
C125	C	0.184370	0.644590	0.513270	-0.255102
C126	C	0.098550	0.612680	0.510620	0.288333
C127	C	0.046430	0.577630	0.552110	-0.255102
C128	C	0.081680	0.572370	0.595670	0.016935
C129	C	0.094970	0.663980	0.427680	0.059405
C130	C	0.927960	0.647730	0.397750	0.059405
C131	C	0.135760	0.564450	0.366630	0.059405
C132	C	0.168640	0.602320	0.598600	-0.198491
O1	O	0.759080	0.780240	0.780400	-0.602782
O2	O	0.752410	0.958570	0.788530	-0.602782
O3	O	0.907340	0.453850	0.671650	-0.258157
O4	O	0.718470	0.367850	0.354950	-0.602782
O5	O	0.839290	0.435170	0.317630	-0.651673
O6	O	0.143380	0.284220	0.572620	-0.258157
O7	O	0.464560	0.418700	0.397580	-0.575058
O8	O	0.937120	0.388980	0.531220	-0.258157
O9	O	0.593900	0.010620	0.753180	-0.651673
O10	O	0.497970	0.296280	0.373380	-0.575058
O11	O	0.612300	0.820130	0.738070	-0.651673
O12	O	0.824370	0.278580	0.661420	-0.258157
O13	O	0.680280	0.280240	0.280400	-0.602782
O14	O	0.500490	0.458570	0.288530	-0.602782
O15	O	0.967160	0.953850	0.171650	-0.258157
O16	O	0.558730	0.867850	0.854950	-0.602782
O17	O	0.407910	0.935170	0.817630	-0.651673
O18	O	0.999780	0.784220	0.072620	-0.258157
O19	O	0.719160	0.918700	0.897580	-0.575058
O20	O	0.142680	0.888980	0.031220	-0.258157
O21	O	0.642300	0.510620	0.253180	-0.651673
O22	O	0.832370	0.796280	0.873380	-0.575058
O23	O	0.829500	0.320130	0.238070	-0.651673
O24	O	0.235630	0.778580	0.161420	-0.258157
O25	O	0.319720	0.719760	0.719600	-0.602782
O26	O	0.499510	0.541430	0.711470	-0.602782
O27	O	0.032840	0.046150	0.828350	-0.258157
O28	O	0.441270	0.132150	0.145050	-0.602782
O29	O	0.592090	0.064830	0.182370	-0.651673
O30	O	0.000220	0.215780	0.927380	-0.258157
O31	O	0.280840	0.081300	0.102420	-0.575058
O32	O	0.857320	0.111020	0.968780	-0.258157
O33	O	0.357700	0.489380	0.746820	-0.651673
O34	O	0.167630	0.203720	0.126620	-0.575058
O35	O	0.170500	0.679870	0.761930	-0.651673
O36	O	0.764370	0.221420	0.838580	-0.258157
O37	O	0.240920	0.219760	0.219600	-0.602782
O38	O	0.247590	0.041430	0.211470	-0.602782
O39	O	0.092660	0.546150	0.328350	-0.258157
O40	O	0.281530	0.632150	0.645050	-0.602782
O41	O	0.160710	0.564830	0.682370	-0.651673
O42	O	0.856620	0.715780	0.427380	-0.258157
O43	O	0.535440	0.581300	0.602420	-0.575058
O44	O	0.062880	0.611020	0.468780	-0.258157
O45	O	0.406100	0.989380	0.246820	-0.651673
O46	O	0.502030	0.703720	0.626620	-0.575058
O47	O	0.387700	0.179870	0.261930	-0.651673
O48	O	0.175630	0.721420	0.338580	-0.258157
