data_PUWCUF_clean_PM
_symmetry_space_group_name_H-M	'P1'
_cell_length_a	15.745000
_cell_length_b	16.907000
_cell_length_c	18.167000
_cell_angle_alpha	90.000000
_cell_angle_beta	90.000000
_cell_angle_gamma	90.000000
_symmetry_Int_Tables_number 1

loop_
_symmetry_equiv_pos_as_xyz
'x,y,z'

loop_
_atom_site_label
_atom_site_type_symbol
_atom_site_fract_x
_atom_site_fract_y
_atom_site_fract_z
_atom_site_charge
Zn1	Zn	0.434100	0.823100	0.644400	1.060135
Zn2	Zn	0.479300	0.642100	0.589200	1.087652
Zn3	Zn	0.065900	0.176900	0.144400	1.060135
Zn4	Zn	0.020700	0.357900	0.089200	1.087652
Zn5	Zn	0.565900	0.323100	0.855600	1.060135
Zn6	Zn	0.520700	0.142100	0.910800	1.087652
Zn7	Zn	0.934100	0.676900	0.355600	1.060135
Zn8	Zn	0.979300	0.857900	0.410800	1.087652
Zn9	Zn	0.565900	0.176900	0.355600	1.060135
Zn10	Zn	0.520700	0.357900	0.410800	1.087652
Zn11	Zn	0.934100	0.823100	0.855600	1.060135
Zn12	Zn	0.979300	0.642100	0.910800	1.087652
Zn13	Zn	0.434100	0.676900	0.144400	1.060135
Zn14	Zn	0.479300	0.857900	0.089200	1.087652
Zn15	Zn	0.065900	0.323100	0.644400	1.060135
Zn16	Zn	0.020700	0.142100	0.589200	1.087652
H1	H	0.469400	0.795200	0.368500	0.103702
H2	H	0.533400	0.721400	0.365400	0.103702
H3	H	0.595000	0.931800	0.261700	0.103702
H4	H	0.507000	0.923400	0.305400	0.103702
H5	H	0.732700	0.937100	0.333300	0.103702
H6	H	0.732100	0.932200	0.421200	0.103702
H7	H	0.672900	0.727700	0.434800	0.103702
H8	H	0.696000	0.803400	0.483900	0.103702
H9	H	0.591900	0.920900	0.490500	0.103702
H10	H	0.505000	0.916800	0.444500	0.103702
H11	H	0.697300	0.816700	0.258800	0.103702
H12	H	0.673900	0.735800	0.300000	0.103702
H13	H	0.030600	0.204800	0.868500	0.103702
H14	H	0.966600	0.278600	0.865400	0.103702
H15	H	0.905000	0.068200	0.761700	0.103702
H16	H	0.993000	0.076600	0.805400	0.103702
H17	H	0.767300	0.062900	0.833300	0.103702
H18	H	0.767900	0.067800	0.921200	0.103702
H19	H	0.827100	0.272300	0.934800	0.103702
H20	H	0.804000	0.196600	0.983900	0.103702
H21	H	0.908100	0.079100	0.990500	0.103702
H22	H	0.995000	0.083200	0.944500	0.103702
H23	H	0.802700	0.183300	0.758800	0.103702
H24	H	0.826100	0.264200	0.800000	0.103702
H25	H	0.530600	0.295200	0.131500	0.103702
H26	H	0.466600	0.221400	0.134600	0.103702
H27	H	0.405000	0.431800	0.238300	0.103702
H28	H	0.493000	0.423400	0.194600	0.103702
H29	H	0.267300	0.437100	0.166700	0.103702
H30	H	0.267900	0.432200	0.078800	0.103702
H31	H	0.327100	0.227700	0.065200	0.103702
H32	H	0.304000	0.303400	0.016100	0.103702
H33	H	0.408100	0.420900	0.009500	0.103702
H34	H	0.495000	0.416800	0.055500	0.103702
H35	H	0.302700	0.316700	0.241200	0.103702
H36	H	0.326100	0.235800	0.200000	0.103702
H37	H	0.969400	0.704800	0.631500	0.103702
H38	H	0.033400	0.778600	0.634600	0.103702
H39	H	0.095000	0.568200	0.738300	0.103702
H40	H	0.007000	0.576600	0.694600	0.103702
H41	H	0.232700	0.562900	0.666700	0.103702
H42	H	0.232100	0.567800	0.578800	0.103702
H43	H	0.172900	0.772300	0.565200	0.103702
H44	H	0.196000	0.696600	0.516100	0.103702
H45	H	0.091900	0.579100	0.509500	0.103702
H46	H	0.005000	0.583200	0.555500	0.103702
H47	H	0.197300	0.683300	0.741200	0.103702
H48	H	0.173900	0.764200	0.700000	0.103702
H49	H	0.530600	0.204800	0.631500	0.103702
H50	H	0.466600	0.278600	0.634600	0.103702
H51	H	0.405000	0.068200	0.738300	0.103702
H52	H	0.493000	0.076600	0.694600	0.103702
H53	H	0.267300	0.062900	0.666700	0.103702
H54	H	0.267900	0.067800	0.578800	0.103702
H55	H	0.327100	0.272300	0.565200	0.103702
H56	H	0.304000	0.196600	0.516100	0.103702
H57	H	0.408100	0.079100	0.509500	0.103702
H58	H	0.495000	0.083200	0.555500	0.103702
H59	H	0.302700	0.183300	0.741200	0.103702
H60	H	0.326100	0.264200	0.700000	0.103702
H61	H	0.969400	0.795200	0.131500	0.103702
H62	H	0.033400	0.721400	0.134600	0.103702
H63	H	0.095000	0.931800	0.238300	0.103702
H64	H	0.007000	0.923400	0.194600	0.103702
H65	H	0.232700	0.937100	0.166700	0.103702
H66	H	0.232100	0.932200	0.078800	0.103702
H67	H	0.172900	0.727700	0.065200	0.103702
H68	H	0.196000	0.803400	0.016100	0.103702
H69	H	0.091900	0.920900	0.009500	0.103702
H70	H	0.005000	0.916800	0.055500	0.103702
H71	H	0.197300	0.816700	0.241200	0.103702
H72	H	0.173900	0.735800	0.200000	0.103702
H73	H	0.469400	0.704800	0.868500	0.103702
H74	H	0.533400	0.778600	0.865400	0.103702
H75	H	0.595000	0.568200	0.761700	0.103702
H76	H	0.507000	0.576600	0.805400	0.103702
H77	H	0.732700	0.562900	0.833300	0.103702
H78	H	0.732100	0.567800	0.921200	0.103702
H79	H	0.672900	0.772300	0.934800	0.103702
H80	H	0.696000	0.696600	0.983900	0.103702
H81	H	0.591900	0.579100	0.990500	0.103702
H82	H	0.505000	0.583200	0.944500	0.103702
H83	H	0.697300	0.683300	0.758800	0.103702
H84	H	0.673900	0.764200	0.800000	0.103702
H85	H	0.030600	0.295200	0.368500	0.103702
H86	H	0.966600	0.221400	0.365400	0.103702
H87	H	0.905000	0.431800	0.261700	0.103702
H88	H	0.993000	0.423400	0.305400	0.103702
H89	H	0.767300	0.437100	0.333300	0.103702
H90	H	0.767900	0.432200	0.421200	0.103702
H91	H	0.827100	0.227700	0.434800	0.103702
H92	H	0.804000	0.303400	0.483900	0.103702
H93	H	0.908100	0.420900	0.490500	0.103702
H94	H	0.995000	0.416800	0.444500	0.103702
H95	H	0.802700	0.316700	0.258800	0.103702
H96	H	0.826100	0.235800	0.300000	0.103702
C1	C	0.530300	0.770100	0.505900	0.699611
C2	C	0.573600	0.809200	0.440300	0.016427
C3	C	0.530000	0.779800	0.368400	-0.211983
C4	C	0.575100	0.816900	0.301500	0.016427
C5	C	0.567600	0.907900	0.305400	-0.212773
C6	C	0.611400	0.939000	0.376800	0.021498
C7	C	0.703700	0.912900	0.376000	-0.212773
C8	C	0.712800	0.823600	0.371800	0.016427
C9	C	0.667900	0.786000	0.437900	-0.211983
C10	C	0.565700	0.901400	0.444400	-0.212773
C11	C	0.668800	0.794100	0.302600	-0.211983
C12	C	0.532800	0.789900	0.230600	0.699611
C13	C	0.606400	0.028900	0.381800	0.652789
C14	C	0.806100	0.799300	0.374100	0.699611
C15	C	0.969700	0.229900	0.005900	0.699611
C16	C	0.926400	0.190800	0.940300	0.016427
C17	C	0.970000	0.220200	0.868400	-0.211983
C18	C	0.924900	0.183100	0.801500	0.016427
C19	C	0.932400	0.092100	0.805400	-0.212773
C20	C	0.888600	0.061000	0.876800	0.021498
C21	C	0.796300	0.087100	0.876000	-0.212773
C22	C	0.787200	0.176400	0.871800	0.016427
C23	C	0.832100	0.214000	0.937900	-0.211983
C24	C	0.934300	0.098600	0.944400	-0.212773
C25	C	0.831200	0.205900	0.802600	-0.211983
C26	C	0.967200	0.210100	0.730600	0.699611
C27	C	0.893600	0.971100	0.881800	0.652789
C28	C	0.693900	0.200700	0.874100	0.699611
C29	C	0.469700	0.270100	0.994100	0.699611
C30	C	0.426400	0.309200	0.059700	0.016427
C31	C	0.470000	0.279800	0.131600	-0.211983
C32	C	0.424900	0.316900	0.198500	0.016427
C33	C	0.432400	0.407900	0.194600	-0.212773
C34	C	0.388600	0.439000	0.123200	0.021498
C35	C	0.296300	0.412900	0.124000	-0.212773
C36	C	0.287200	0.323600	0.128200	0.016427
C37	C	0.332100	0.286000	0.062100	-0.211983
C38	C	0.434300	0.401400	0.055600	-0.212773
C39	C	0.331200	0.294100	0.197400	-0.211983
C40	C	0.467200	0.289900	0.269400	0.699611
C41	C	0.393600	0.528900	0.118200	0.652789
C42	C	0.193900	0.299300	0.125900	0.699611
C43	C	0.030300	0.729900	0.494100	0.699611
C44	C	0.073600	0.690800	0.559700	0.016427
C45	C	0.030000	0.720200	0.631600	-0.211983
C46	C	0.075100	0.683100	0.698500	0.016427
C47	C	0.067600	0.592100	0.694600	-0.212773
C48	C	0.111400	0.561000	0.623200	0.021498
C49	C	0.203700	0.587100	0.624000	-0.212773
C50	C	0.212800	0.676400	0.628200	0.016427
C51	C	0.167900	0.714000	0.562100	-0.211983
C52	C	0.065700	0.598600	0.555600	-0.212773
C53	C	0.168800	0.705900	0.697400	-0.211983
C54	C	0.032800	0.710100	0.769400	0.699611
C55	C	0.106400	0.471100	0.618200	0.652789
C56	C	0.306100	0.700700	0.625900	0.699611
C57	C	0.469700	0.229900	0.494100	0.699611
C58	C	0.426400	0.190800	0.559700	0.016427
C59	C	0.470000	0.220200	0.631600	-0.211983
C60	C	0.424900	0.183100	0.698500	0.016427
C61	C	0.432400	0.092100	0.694600	-0.212773
C62	C	0.388600	0.061000	0.623200	0.021498
C63	C	0.296300	0.087100	0.624000	-0.212773
C64	C	0.287200	0.176400	0.628200	0.016427
C65	C	0.332100	0.214000	0.562100	-0.211983
C66	C	0.434300	0.098600	0.555600	-0.212773
C67	C	0.331200	0.205900	0.697400	-0.211983
C68	C	0.467200	0.210100	0.769400	0.699611
C69	C	0.393600	0.971100	0.618200	0.652789
C70	C	0.193900	0.200700	0.625900	0.699611
C71	C	0.030300	0.770100	0.994100	0.699611
C72	C	0.073600	0.809200	0.059700	0.016427
C73	C	0.030000	0.779800	0.131600	-0.211983
C74	C	0.075100	0.816900	0.198500	0.016427
C75	C	0.067600	0.907900	0.194600	-0.212773
C76	C	0.111400	0.939000	0.123200	0.021498
C77	C	0.203700	0.912900	0.124000	-0.212773
C78	C	0.212800	0.823600	0.128200	0.016427
C79	C	0.167900	0.786000	0.062100	-0.211983
C80	C	0.065700	0.901400	0.055600	-0.212773
C81	C	0.168800	0.794100	0.197400	-0.211983
C82	C	0.032800	0.789900	0.269400	0.699611
C83	C	0.106400	0.028900	0.118200	0.652789
C84	C	0.306100	0.799300	0.125900	0.699611
C85	C	0.530300	0.729900	0.005900	0.699611
C86	C	0.573600	0.690800	0.940300	0.016427
C87	C	0.530000	0.720200	0.868400	-0.211983
C88	C	0.575100	0.683100	0.801500	0.016427
C89	C	0.567600	0.592100	0.805400	-0.212773
C90	C	0.611400	0.561000	0.876800	0.021498
C91	C	0.703700	0.587100	0.876000	-0.212773
C92	C	0.712800	0.676400	0.871800	0.016427
C93	C	0.667900	0.714000	0.937900	-0.211983
C94	C	0.565700	0.598600	0.944400	-0.212773
C95	C	0.668800	0.705900	0.802600	-0.211983
C96	C	0.532800	0.710100	0.730600	0.699611
C97	C	0.606400	0.471100	0.881800	0.652789
C98	C	0.806100	0.700700	0.874100	0.699611
C99	C	0.969700	0.270100	0.505900	0.699611
C100	C	0.926400	0.309200	0.440300	0.016427
C101	C	0.970000	0.279800	0.368400	-0.211983
C102	C	0.924900	0.316900	0.301500	0.016427
C103	C	0.932400	0.407900	0.305400	-0.212773
C104	C	0.888600	0.439000	0.376800	0.021498
C105	C	0.796300	0.412900	0.376000	-0.212773
C106	C	0.787200	0.323600	0.371800	0.016427
C107	C	0.832100	0.286000	0.437900	-0.211983
C108	C	0.934300	0.401400	0.444400	-0.212773
C109	C	0.831200	0.294100	0.302600	-0.211983
C110	C	0.967200	0.289900	0.230600	0.699611
C111	C	0.893600	0.528900	0.381800	0.652789
C112	C	0.693900	0.299300	0.374100	0.699611
O1	O	0.508100	0.813800	0.557900	-0.607092
O2	O	0.520800	0.697600	0.504000	-0.631822
O3	O	0.489800	0.728300	0.230500	-0.607092
O4	O	0.549700	0.830400	0.173900	-0.631822
O5	O	0.566600	0.066000	0.330100	-0.625414
O6	O	0.636800	0.064300	0.433800	-0.598185
O7	O	0.859300	0.850200	0.392000	-0.631822
O8	O	0.822700	0.729500	0.358200	-0.607092
O9	O	0.991900	0.186200	0.057900	-0.607092
O10	O	0.979200	0.302400	0.004000	-0.631822
O11	O	0.010200	0.271700	0.730500	-0.607092
O12	O	0.950300	0.169600	0.673900	-0.631822
O13	O	0.933400	0.934000	0.830100	-0.625414
O14	O	0.863200	0.935700	0.933800	-0.598185
O15	O	0.640700	0.149800	0.892000	-0.631822
O16	O	0.677300	0.270500	0.858200	-0.607092
O17	O	0.491900	0.313800	0.942100	-0.607092
O18	O	0.479200	0.197600	0.996000	-0.631822
O19	O	0.510200	0.228300	0.269500	-0.607092
O20	O	0.450300	0.330400	0.326100	-0.631822
O21	O	0.433400	0.566000	0.169900	-0.625414
O22	O	0.363200	0.564300	0.066200	-0.598185
O23	O	0.140700	0.350200	0.108000	-0.631822
O24	O	0.177300	0.229500	0.141800	-0.607092
O25	O	0.008100	0.686200	0.442100	-0.607092
O26	O	0.020800	0.802400	0.496000	-0.631822
O27	O	0.989800	0.771700	0.769500	-0.607092
O28	O	0.049700	0.669600	0.826100	-0.631822
O29	O	0.066600	0.434000	0.669900	-0.625414
O30	O	0.136800	0.435700	0.566200	-0.598185
O31	O	0.359300	0.649800	0.608000	-0.631822
O32	O	0.322700	0.770500	0.641800	-0.607092
O33	O	0.491900	0.186200	0.442100	-0.607092
O34	O	0.479200	0.302400	0.496000	-0.631822
O35	O	0.510200	0.271700	0.769500	-0.607092
O36	O	0.450300	0.169600	0.826100	-0.631822
O37	O	0.433400	0.934000	0.669900	-0.625414
O38	O	0.363200	0.935700	0.566200	-0.598185
O39	O	0.140700	0.149800	0.608000	-0.631822
O40	O	0.177300	0.270500	0.641800	-0.607092
O41	O	0.008100	0.813800	0.942100	-0.607092
O42	O	0.020800	0.697600	0.996000	-0.631822
O43	O	0.989800	0.728300	0.269500	-0.607092
O44	O	0.049700	0.830400	0.326100	-0.631822
O45	O	0.066600	0.066000	0.169900	-0.625414
O46	O	0.136800	0.064300	0.066200	-0.598185
O47	O	0.359300	0.850200	0.108000	-0.631822
O48	O	0.322700	0.729500	0.141800	-0.607092
O49	O	0.508100	0.686200	0.057900	-0.607092
O50	O	0.520800	0.802400	0.004000	-0.631822
O51	O	0.489800	0.771700	0.730500	-0.607092
O52	O	0.549700	0.669600	0.673900	-0.631822
O53	O	0.566600	0.434000	0.830100	-0.625414
O54	O	0.636800	0.435700	0.933800	-0.598185
O55	O	0.859300	0.649800	0.892000	-0.631822
O56	O	0.822700	0.770500	0.858200	-0.607092
O57	O	0.991900	0.313800	0.557900	-0.607092
O58	O	0.979200	0.197600	0.504000	-0.631822
O59	O	0.010200	0.228300	0.230500	-0.607092
O60	O	0.950300	0.330400	0.173900	-0.631822
O61	O	0.933400	0.566000	0.330100	-0.625414
O62	O	0.863200	0.564300	0.433800	-0.598185
O63	O	0.640700	0.350200	0.392000	-0.631822
O64	O	0.677300	0.229500	0.358200	-0.607092
