data_QEYWUN_clean_PM
_symmetry_space_group_name_H-M	'P1'
_cell_length_a	10.093600
_cell_length_b	12.510800
_cell_length_c	15.172100
_cell_angle_alpha	90.000000
_cell_angle_beta	90.000000
_cell_angle_gamma	90.000000
_symmetry_Int_Tables_number 1

loop_
_symmetry_equiv_pos_as_xyz
'x,y,z'

loop_
_atom_site_label
_atom_site_type_symbol
_atom_site_fract_x
_atom_site_fract_y
_atom_site_fract_z
_atom_site_charge
Cd1	Cd	0.000000	0.500000	0.000000	0.952062
Cd2	Cd	0.500000	0.500000	0.500000	0.952062
Cd3	Cd	0.000000	0.000000	0.500000	0.952062
Cd4	Cd	0.500000	0.000000	0.000000	0.952062
H1	H	0.378900	0.759300	0.057900	0.076544
H2	H	0.637500	0.776200	0.870700	0.112868
H3	H	0.518700	0.498000	0.887400	0.154764
H4	H	0.444200	0.479200	0.729200	0.112868
H5	H	0.715900	0.648900	0.616000	0.076544
H6	H	0.121100	0.240700	0.557900	0.076544
H7	H	0.862500	0.223800	0.370700	0.112868
H8	H	0.981300	0.502000	0.387400	0.154764
H9	H	0.055800	0.520800	0.229200	0.112868
H10	H	0.784100	0.351100	0.116000	0.076544
H11	H	0.621100	0.259300	0.442100	0.076544
H12	H	0.362500	0.276200	0.629300	0.112868
H13	H	0.481300	0.998000	0.612600	0.154764
H14	H	0.555800	0.979200	0.770800	0.112868
H15	H	0.284100	0.148900	0.884000	0.076544
H16	H	0.878900	0.740700	0.942100	0.076544
H17	H	0.137500	0.723800	0.129300	0.112868
H18	H	0.018700	0.002000	0.112600	0.154764
H19	H	0.944200	0.020800	0.270800	0.112868
H20	H	0.215900	0.851100	0.384000	0.076544
H21	H	0.621100	0.240700	0.942100	0.076544
H22	H	0.362500	0.223800	0.129300	0.112868
H23	H	0.481300	0.502000	0.112600	0.154764
H24	H	0.555800	0.520800	0.270800	0.112868
H25	H	0.284100	0.351100	0.384000	0.076544
H26	H	0.878900	0.759300	0.442100	0.076544
H27	H	0.137500	0.776200	0.629300	0.112868
H28	H	0.018700	0.498000	0.612600	0.154764
H29	H	0.944200	0.479200	0.770800	0.112868
H30	H	0.215900	0.648900	0.884000	0.076544
H31	H	0.378900	0.740700	0.557900	0.076544
H32	H	0.637500	0.723800	0.370700	0.112868
H33	H	0.518700	0.002000	0.387400	0.154764
H34	H	0.444200	0.020800	0.229200	0.112868
H35	H	0.715900	0.851100	0.116000	0.076544
H36	H	0.121100	0.259300	0.057900	0.076544
H37	H	0.862500	0.276200	0.870700	0.112868
H38	H	0.981300	0.998000	0.887400	0.154764
H39	H	0.055800	0.979200	0.729200	0.112868
H40	H	0.784100	0.148900	0.616000	0.076544
C1	C	0.435900	0.739900	0.012400	0.277930
C2	C	0.576300	0.751100	0.911600	0.163714
C3	C	0.584800	0.553500	0.875520	-0.086333
C4	C	0.721000	0.509600	0.905500	0.616913
C5	C	0.516100	0.524000	0.718900	0.163714
C6	C	0.665000	0.616100	0.659400	0.277930
C7	C	0.064100	0.260100	0.512400	0.277930
C8	C	0.923700	0.248900	0.411600	0.163714
C9	C	0.915200	0.446500	0.375520	-0.086333
C10	C	0.779000	0.490400	0.405500	0.616913
C11	C	0.983900	0.476000	0.218900	0.163714
C12	C	0.835000	0.383900	0.159400	0.277930
C13	C	0.564100	0.239900	0.487600	0.277930
C14	C	0.423700	0.251100	0.588400	0.163714
C15	C	0.415200	0.053500	0.624480	-0.086333
C16	C	0.279000	0.009600	0.594500	0.616913
C17	C	0.483900	0.024000	0.781100	0.163714
C18	C	0.335000	0.116100	0.840600	0.277930
C19	C	0.935900	0.760100	0.987600	0.277930
C20	C	0.076300	0.748900	0.088400	0.163714
C21	C	0.084800	0.946500	0.124480	-0.086333
C22	C	0.221000	0.990400	0.094500	0.616913
C23	C	0.016100	0.976000	0.281100	0.163714
C24	C	0.165000	0.883900	0.340600	0.277930
C25	C	0.564100	0.260100	0.987600	0.277930
C26	C	0.423700	0.248900	0.088400	0.163714
C27	C	0.415200	0.446500	0.124480	-0.086333
C28	C	0.279000	0.490400	0.094500	0.616913
C29	C	0.483900	0.476000	0.281100	0.163714
C30	C	0.335000	0.383900	0.340600	0.277930
C31	C	0.935900	0.739900	0.487600	0.277930
C32	C	0.076300	0.751100	0.588400	0.163714
C33	C	0.084800	0.553500	0.624480	-0.086333
C34	C	0.221000	0.509600	0.594500	0.616913
C35	C	0.016100	0.524000	0.781100	0.163714
C36	C	0.165000	0.616100	0.840600	0.277930
C37	C	0.435900	0.760100	0.512400	0.277930
C38	C	0.576300	0.748900	0.411600	0.163714
C39	C	0.584800	0.946500	0.375520	-0.086333
C40	C	0.721000	0.990400	0.405500	0.616913
C41	C	0.516100	0.976000	0.218900	0.163714
C42	C	0.665000	0.883900	0.159400	0.277930
C43	C	0.064100	0.239900	0.012400	0.277930
C44	C	0.923700	0.251100	0.911600	0.163714
C45	C	0.915200	0.053500	0.875520	-0.086333
C46	C	0.779000	0.009600	0.905500	0.616913
C47	C	0.983900	0.024000	0.718900	0.163714
C48	C	0.835000	0.116100	0.659400	0.277930
N1	N	0.541100	0.650440	0.920320	0.145959
N2	N	0.448700	0.641200	0.985360	-0.361799
N3	N	0.512300	0.811800	0.969000	-0.421627
N4	N	0.588500	0.569830	0.780770	0.145959
N5	N	0.687400	0.628800	0.743460	-0.361799
N6	N	0.560800	0.551000	0.640560	-0.421627
N7	N	0.958900	0.349560	0.420320	0.145959
N8	N	0.051300	0.358800	0.485360	-0.361799
N9	N	0.987700	0.188200	0.469000	-0.421627
N10	N	0.911500	0.430170	0.280770	0.145959
N11	N	0.812600	0.371200	0.243460	-0.361799
N12	N	0.939200	0.449000	0.140560	-0.421627
N13	N	0.458900	0.150440	0.579680	0.145959
N14	N	0.551300	0.141200	0.514640	-0.361799
N15	N	0.487700	0.311800	0.531000	-0.421627
N16	N	0.411500	0.069830	0.719230	0.145959
N17	N	0.312600	0.128800	0.756540	-0.361799
N18	N	0.439200	0.051000	0.859440	-0.421627
N19	N	0.041100	0.849560	0.079680	0.145959
N20	N	0.948700	0.858800	0.014640	-0.361799
N21	N	0.012300	0.688200	0.031000	-0.421627
N22	N	0.088500	0.930170	0.219230	0.145959
N23	N	0.187400	0.871200	0.256540	-0.361799
N24	N	0.060800	0.949000	0.359440	-0.421627
N25	N	0.458900	0.349560	0.079680	0.145959
N26	N	0.551300	0.358800	0.014640	-0.361799
N27	N	0.487700	0.188200	0.031000	-0.421627
N28	N	0.411500	0.430170	0.219230	0.145959
N29	N	0.312600	0.371200	0.256540	-0.361799
N30	N	0.439200	0.449000	0.359440	-0.421627
N31	N	0.041100	0.650440	0.579680	0.145959
N32	N	0.948700	0.641200	0.514640	-0.361799
N33	N	0.012300	0.811800	0.531000	-0.421627
N34	N	0.088500	0.569830	0.719230	0.145959
N35	N	0.187400	0.628800	0.756540	-0.361799
N36	N	0.060800	0.551000	0.859440	-0.421627
N37	N	0.541100	0.849560	0.420320	0.145959
N38	N	0.448700	0.858800	0.485360	-0.361799
N39	N	0.512300	0.688200	0.469000	-0.421627
N40	N	0.588500	0.930170	0.280770	0.145959
N41	N	0.687400	0.871200	0.243460	-0.361799
N42	N	0.560800	0.949000	0.140560	-0.421627
N43	N	0.958900	0.150440	0.920320	0.145959
N44	N	0.051300	0.141200	0.985360	-0.361799
N45	N	0.987700	0.311800	0.969000	-0.421627
N46	N	0.911500	0.069830	0.780770	0.145959
N47	N	0.812600	0.128800	0.743460	-0.361799
N48	N	0.939200	0.051000	0.640560	-0.421627
O1	O	0.777600	0.552890	0.969120	-0.595709
O2	O	0.759300	0.432880	0.861270	-0.552846
O3	O	0.722400	0.447110	0.469120	-0.595709
O4	O	0.740700	0.567120	0.361270	-0.552846
O5	O	0.222400	0.052890	0.530880	-0.595709
O6	O	0.240700	0.932880	0.638730	-0.552846
O7	O	0.277600	0.947110	0.030880	-0.595709
O8	O	0.259300	0.067120	0.138730	-0.552846
O9	O	0.222400	0.447110	0.030880	-0.595709
O10	O	0.240700	0.567120	0.138730	-0.552846
O11	O	0.277600	0.552890	0.530880	-0.595709
O12	O	0.259300	0.432880	0.638730	-0.552846
O13	O	0.777600	0.947110	0.469120	-0.595709
O14	O	0.759300	0.067120	0.361270	-0.552846
O15	O	0.722400	0.052890	0.969120	-0.595709
O16	O	0.740700	0.932880	0.861270	-0.552846
