data_QUGBUQ_clean_PM
_symmetry_space_group_name_H-M	'P1'
_cell_length_a	8.772600
_cell_length_b	12.182000
_cell_length_c	21.900700
_cell_angle_alpha	92.175001
_cell_angle_beta	101.552998
_cell_angle_gamma	89.999998
_symmetry_Int_Tables_number 1

loop_
_symmetry_equiv_pos_as_xyz
'x,y,z'

loop_
_atom_site_label
_atom_site_type_symbol
_atom_site_fract_x
_atom_site_fract_y
_atom_site_fract_z
_atom_site_charge
Ag1	Ag	0.563750	0.431030	0.825940	0.332232
Ag2	Ag	0.737810	0.068970	0.174060	0.332232
Ag3	Ag	0.436250	0.568970	0.174060	0.332232
Ag4	Ag	0.262190	0.931030	0.825940	0.332232
Ag5	Ag	0.038770	0.963110	0.672160	0.347883
Ag6	Ag	0.961230	0.036890	0.327840	0.347883
Ag7	Ag	0.366610	0.536890	0.327840	0.347883
Ag8	Ag	0.633390	0.463110	0.672160	0.347883
H1	H	0.495000	0.147000	0.802600	0.073601
H2	H	0.184200	0.158300	0.905000	0.107931
H3	H	0.229600	0.430200	0.875200	0.122418
H4	H	0.179800	0.366200	0.928800	0.122418
H5	H	0.557000	0.328100	0.963400	0.103579
H6	H	0.260600	0.572300	0.962600	0.103579
H7	H	0.692400	0.353000	0.197400	0.073601
H8	H	0.279200	0.341700	0.095000	0.107931
H9	H	0.354400	0.069800	0.124800	0.122418
H10	H	0.251000	0.133800	0.071200	0.122418
H11	H	0.593600	0.171900	0.036600	0.103579
H12	H	0.298000	0.927700	0.037400	0.103579
H13	H	0.505000	0.853000	0.197400	0.073601
H14	H	0.815800	0.841700	0.095000	0.107931
H15	H	0.770400	0.569800	0.124800	0.122418
H16	H	0.820200	0.633800	0.071200	0.122418
H17	H	0.443000	0.671900	0.036600	0.103579
H18	H	0.739400	0.427700	0.037400	0.103579
H19	H	0.307600	0.647000	0.802600	0.073601
H20	H	0.720800	0.658300	0.905000	0.107931
H21	H	0.645600	0.930200	0.875200	0.122418
H22	H	0.749000	0.866200	0.928800	0.122418
H23	H	0.406400	0.828100	0.963400	0.103579
H24	H	0.702000	0.072300	0.962600	0.103579
H25	H	0.941300	0.730400	0.584200	0.108240
H26	H	0.660600	0.972200	0.593800	0.067210
H27	H	0.807200	0.646700	0.477200	0.126140
H28	H	0.662400	0.710700	0.442400	0.126140
H29	H	0.509700	0.659400	0.560800	0.103579
H30	H	0.656900	0.482200	0.427000	0.103579
H31	H	0.247200	0.172900	0.671800	0.073795
H32	H	0.869400	0.148700	0.738800	0.073795
H33	H	0.090800	0.435300	0.752800	0.096128
H34	H	0.058700	0.269600	0.415800	0.108240
H35	H	0.339400	0.027800	0.406200	0.067210
H36	H	0.192800	0.353300	0.522800	0.126140
H37	H	0.337600	0.289300	0.557600	0.126140
H38	H	0.490300	0.340600	0.439200	0.103579
H39	H	0.343100	0.517800	0.573000	0.103579
H40	H	0.752800	0.827100	0.328200	0.073795
H41	H	0.130600	0.851300	0.261200	0.073795
H42	H	0.909200	0.564700	0.247200	0.096128
H43	H	0.357100	0.769600	0.415800	0.108240
H44	H	0.066800	0.527800	0.406200	0.067210
H45	H	0.330000	0.853300	0.522800	0.126140
H46	H	0.220000	0.789300	0.557600	0.126140
H47	H	0.948900	0.840600	0.439200	0.103579
H48	H	0.229900	0.017800	0.573000	0.103579
H49	H	0.575400	0.327100	0.328200	0.073795
H50	H	0.130600	0.351300	0.261200	0.073795
H51	H	0.338000	0.064700	0.247200	0.096128
H52	H	0.642900	0.230400	0.584200	0.108240
H53	H	0.933200	0.472200	0.593800	0.067210
H54	H	0.670000	0.146700	0.477200	0.126140
H55	H	0.780000	0.210700	0.442400	0.126140
H56	H	0.051100	0.159400	0.560800	0.103579
H57	H	0.770100	0.982200	0.427000	0.103579
H58	H	0.424600	0.672900	0.671800	0.073795
H59	H	0.869400	0.648700	0.738800	0.073795
H60	H	0.662000	0.935300	0.752800	0.096128
C1	C	0.428450	0.173200	0.827900	0.262426
C2	C	0.260380	0.177500	0.883160	0.187369
C3	C	0.266600	0.381600	0.909000	-0.083484
C4	C	0.390860	0.440300	0.955720	0.048335
C5	C	0.532020	0.397300	0.977640	-0.113555
C6	C	0.357670	0.542000	0.977540	-0.113555
C7	C	0.600550	0.326800	0.172100	0.262426
C8	C	0.377220	0.322500	0.116840	0.187369
C9	C	0.357600	0.118400	0.091000	-0.083484
C10	C	0.435140	0.059700	0.044280	0.048335
C11	C	0.554380	0.102700	0.022360	-0.113555
C12	C	0.380130	0.958000	0.022460	-0.113555
C13	C	0.571550	0.826800	0.172100	0.262426
C14	C	0.739620	0.822500	0.116840	0.187369
C15	C	0.733400	0.618400	0.091000	-0.083484
C16	C	0.609140	0.559700	0.044280	0.048335
C17	C	0.467980	0.602700	0.022360	-0.113555
C18	C	0.642330	0.458000	0.022460	-0.113555
C19	C	0.399450	0.673200	0.827900	0.262426
C20	C	0.622780	0.677500	0.883160	0.187369
C21	C	0.642400	0.881600	0.909000	-0.083484
C22	C	0.564860	0.940300	0.955720	0.048335
C23	C	0.445620	0.897300	0.977640	-0.113555
C24	C	0.619870	0.042000	0.977540	-0.113555
C25	C	0.857030	0.777800	0.576460	0.169527
C26	C	0.702950	0.907700	0.580700	0.283929
C27	C	0.707850	0.677600	0.481500	-0.091525
C28	C	0.601220	0.585100	0.492840	0.048868
C29	C	0.506340	0.595200	0.536280	-0.113555
C30	C	0.594270	0.489900	0.456540	-0.113555
C31	C	0.329800	0.379500	0.699400	0.635294
C32	C	0.192130	0.315400	0.710660	-0.220262
C33	C	0.173750	0.205200	0.691900	0.187318
C34	C	0.951420	0.191200	0.731440	0.187318
C35	C	0.959850	0.299800	0.752100	-0.220262
C36	C	0.082500	0.361300	0.740400	0.071169
C37	C	0.838700	0.348000	0.785400	0.635889
C38	C	0.142970	0.222200	0.423540	0.169527
C39	C	0.297050	0.092300	0.419300	0.283929
C40	C	0.292150	0.322400	0.518500	-0.091525
C41	C	0.398780	0.414900	0.507160	0.048868
C42	C	0.493660	0.404800	0.463720	-0.113555
C43	C	0.405730	0.510100	0.543460	-0.113555
C44	C	0.670200	0.620500	0.300600	0.635294
C45	C	0.807870	0.684600	0.289340	-0.220262
C46	C	0.826250	0.794800	0.308100	0.187318
C47	C	0.048580	0.808800	0.268560	0.187318
C48	C	0.040150	0.700200	0.247900	-0.220262
C49	C	0.917500	0.638700	0.259600	0.071169
C50	C	0.161300	0.652000	0.214600	0.635889
C51	C	0.280570	0.722200	0.423540	0.169527
C52	C	0.122250	0.592300	0.419300	0.283929
C53	C	0.226350	0.822400	0.518500	-0.091525
C54	C	0.108380	0.914900	0.507160	0.048868
C55	C	0.970060	0.904800	0.463720	-0.113555
C56	C	0.137730	0.010100	0.543460	-0.113555
C57	C	0.630400	0.120500	0.300600	0.635294
C58	C	0.481470	0.184600	0.289340	-0.220262
C59	C	0.481850	0.294800	0.308100	0.187318
C60	C	0.219980	0.308800	0.268560	0.187318
C61	C	0.207750	0.200200	0.247900	-0.220262
C62	C	0.342100	0.138700	0.259600	0.071169
C63	C	0.053300	0.152000	0.214600	0.635889
C64	C	0.719430	0.277800	0.576460	0.169527
C65	C	0.877750	0.407700	0.580700	0.283929
C66	C	0.773650	0.177600	0.481500	-0.091525
C67	C	0.891620	0.085100	0.492840	0.048868
C68	C	0.029940	0.095200	0.536280	-0.113555
C69	C	0.862270	0.989900	0.456540	-0.113555
C70	C	0.369600	0.879500	0.699400	0.635294
C71	C	0.518530	0.815400	0.710660	-0.220262
C72	C	0.518150	0.705200	0.691900	0.187318
C73	C	0.780020	0.691200	0.731440	0.187318
C74	C	0.792250	0.799800	0.752100	-0.220262
C75	C	0.657900	0.861300	0.740400	0.071169
C76	C	0.946700	0.848000	0.785400	0.635889
N1	N	0.423790	0.277000	0.846380	-0.302449
N2	N	0.326260	0.108100	0.849320	-0.390281
N3	N	0.315810	0.277900	0.882420	0.157757
N4	N	0.577410	0.223000	0.153620	-0.302449
N5	N	0.476940	0.391900	0.150680	-0.390281
N6	N	0.433390	0.222100	0.117580	0.157757
N7	N	0.576210	0.723000	0.153620	-0.302449
N8	N	0.673740	0.891900	0.150680	-0.390281
N9	N	0.684190	0.722100	0.117580	0.157757
N10	N	0.422590	0.777000	0.846380	-0.302449
N11	N	0.523060	0.608100	0.849320	-0.390281
N12	N	0.566610	0.777900	0.882420	0.157757
N13	N	0.843200	0.868600	0.609600	-0.393269
N14	N	0.631950	0.846300	0.532300	-0.376717
N15	N	0.734970	0.763400	0.530940	0.171407
N16	N	0.054670	0.143100	0.701340	-0.336474
N17	N	0.156800	0.131400	0.390400	-0.393269
N18	N	0.368050	0.153700	0.467700	-0.376717
N19	N	0.265030	0.236600	0.469060	0.171407
N20	N	0.945330	0.856900	0.298660	-0.336474
N21	N	0.233600	0.631400	0.390400	-0.393269
N22	N	0.099650	0.653700	0.467700	-0.376717
N23	N	0.204030	0.736600	0.469060	0.171407
N24	N	0.353330	0.356900	0.298660	-0.336474
N25	N	0.766400	0.368600	0.609600	-0.393269
N26	N	0.900350	0.346300	0.532300	-0.376717
N27	N	0.795970	0.263400	0.530940	0.171407
N28	N	0.646670	0.643100	0.701340	-0.336474
O1	O	0.338940	0.478700	0.715080	-0.602082
O2	O	0.431250	0.329700	0.676500	-0.579535
O3	O	0.826600	0.447300	0.790000	-0.602082
O4	O	0.753500	0.286500	0.804600	-0.586211
O5	O	0.661060	0.521300	0.284920	-0.602082
O6	O	0.568750	0.670300	0.323500	-0.579535
O7	O	0.173400	0.552700	0.210000	-0.602082
O8	O	0.246500	0.713500	0.195400	-0.586211
O9	O	0.623860	0.021300	0.284920	-0.602082
O10	O	0.754750	0.170300	0.323500	-0.579535
O11	O	0.036600	0.052700	0.210000	-0.602082
O12	O	0.948900	0.213500	0.195400	-0.586211
O13	O	0.376140	0.978700	0.715080	-0.602082
O14	O	0.245250	0.829700	0.676500	-0.579535
O15	O	0.963400	0.947300	0.790000	-0.602082
O16	O	0.051100	0.786500	0.804600	-0.586211
