data_QUGNOV_clean_PM
_symmetry_space_group_name_H-M	'P1'
_cell_length_a	6.721000
_cell_length_b	10.156900
_cell_length_c	10.156900
_cell_angle_alpha	89.593101
_cell_angle_beta	86.928802
_cell_angle_gamma	86.928798
_symmetry_Int_Tables_number 1

loop_
_symmetry_equiv_pos_as_xyz
'x,y,z'

loop_
_atom_site_label
_atom_site_type_symbol
_atom_site_fract_x
_atom_site_fract_y
_atom_site_fract_z
_atom_site_charge
Cd1	Cd	0.750000	0.571750	0.428250	1.268583
Cd2	Cd	0.250000	0.428250	0.571750	1.268583
H1	H	0.874600	0.357100	0.793300	0.137910
H2	H	0.786700	0.738100	0.715900	0.137910
H3	H	0.779800	0.396300	0.011100	0.127990
H4	H	0.666700	0.779700	0.931300	0.127990
H5	H	0.625400	0.206700	0.642900	0.137910
H6	H	0.713300	0.284100	0.261900	0.137910
H7	H	0.720200	0.988900	0.603700	0.127990
H8	H	0.833300	0.068700	0.220300	0.127990
H9	H	0.125400	0.642900	0.206700	0.137910
H10	H	0.213300	0.261900	0.284100	0.137910
H11	H	0.220200	0.603700	0.988900	0.127990
H12	H	0.333300	0.220300	0.068700	0.127990
H13	H	0.374600	0.793300	0.357100	0.137910
H14	H	0.286700	0.715900	0.738100	0.137910
H15	H	0.279800	0.011100	0.396300	0.127990
H16	H	0.166700	0.931300	0.779700	0.127990
C1	C	0.713000	0.591000	0.997800	-0.055484
C2	C	0.839400	0.442300	0.822500	-0.062501
C3	C	0.783300	0.669700	0.777100	-0.062501
C4	C	0.653700	0.619500	0.140300	0.627968
C5	C	0.777900	0.466400	0.951800	-0.050140
C6	C	0.713000	0.695100	0.906100	-0.050140
C7	C	0.787000	0.002200	0.409000	-0.055484
C8	C	0.660600	0.177500	0.557700	-0.062501
C9	C	0.716700	0.222900	0.330300	-0.062501
C10	C	0.846300	0.859700	0.380500	0.627968
C11	C	0.722100	0.048200	0.533600	-0.050140
C12	C	0.787000	0.093900	0.304900	-0.050140
C13	C	0.287000	0.409000	0.002200	-0.055484
C14	C	0.160600	0.557700	0.177500	-0.062501
C15	C	0.216700	0.330300	0.222900	-0.062501
C16	C	0.346300	0.380500	0.859700	0.627968
C17	C	0.222100	0.533600	0.048200	-0.050140
C18	C	0.287000	0.304900	0.093900	-0.050140
C19	C	0.213000	0.997800	0.591000	-0.055484
C20	C	0.339400	0.822500	0.442300	-0.062501
C21	C	0.283300	0.777100	0.669700	-0.062501
C22	C	0.153700	0.140300	0.619500	0.627968
C23	C	0.277900	0.951800	0.466400	-0.050140
C24	C	0.213000	0.906100	0.695100	-0.050140
N1	N	0.847000	0.545700	0.739700	0.307394
N2	N	0.653000	0.260300	0.454300	0.307394
N3	N	0.153000	0.454300	0.260300	0.307394
N4	N	0.347000	0.739700	0.545700	0.307394
O1	O	0.559000	0.721000	0.173200	-0.572142
O2	O	0.923400	0.523800	0.615400	-0.617084
O3	O	0.713800	0.528490	0.218830	-0.631462
O4	O	0.941000	0.826800	0.279000	-0.572142
O5	O	0.576600	0.384600	0.476200	-0.617084
O6	O	0.786200	0.781170	0.471510	-0.631462
O7	O	0.441000	0.279000	0.826800	-0.572142
O8	O	0.076600	0.476200	0.384600	-0.617084
O9	O	0.286200	0.471510	0.781170	-0.631462
O10	O	0.059000	0.173200	0.721000	-0.572142
O11	O	0.423400	0.615400	0.523800	-0.617084
O12	O	0.213800	0.218830	0.528490	-0.631462
