data_RATSAI_clean_PM
_symmetry_space_group_name_H-M	'P1'
_cell_length_a	10.153700
_cell_length_b	17.435600
_cell_length_c	17.659400
_cell_angle_alpha	90.000000
_cell_angle_beta	90.000000
_cell_angle_gamma	90.000000
_symmetry_Int_Tables_number 1

loop_
_symmetry_equiv_pos_as_xyz
'x,y,z'

loop_
_atom_site_label
_atom_site_type_symbol
_atom_site_fract_x
_atom_site_fract_y
_atom_site_fract_z
_atom_site_charge
Dy1	Dy	0.661040	0.979100	0.220440	2.260637
Dy2	Dy	0.881990	0.178860	0.206250	2.260637
Dy3	Dy	0.338960	0.020900	0.720440	2.260637
Dy4	Dy	0.118010	0.821140	0.706250	2.260637
Dy5	Dy	0.838960	0.479100	0.220440	2.260637
Dy6	Dy	0.618010	0.678860	0.206250	2.260637
Dy7	Dy	0.161040	0.520900	0.720440	2.260637
Dy8	Dy	0.381990	0.321140	0.706250	2.260637
H1	H	0.633100	0.286900	0.401500	0.111661
H2	H	0.980000	0.857500	0.902700	0.111661
H3	H	0.622800	0.950000	0.417600	0.111661
H4	H	0.880300	0.876200	0.025500	0.111661
H5	H	0.536600	0.292700	0.528400	0.111661
H6	H	0.520400	0.967200	0.541200	0.111661
H7	H	0.366900	0.713100	0.901500	0.111661
H8	H	0.020000	0.142500	0.402700	0.111661
H9	H	0.377200	0.050000	0.917600	0.111661
H10	H	0.119700	0.123800	0.525500	0.111661
H11	H	0.463400	0.707300	0.028400	0.111661
H12	H	0.479600	0.032800	0.041200	0.111661
H13	H	0.866900	0.786900	0.401500	0.111661
H14	H	0.520000	0.357500	0.902700	0.111661
H15	H	0.877200	0.450000	0.417600	0.111661
H16	H	0.619700	0.376200	0.025500	0.111661
H17	H	0.963400	0.792700	0.528400	0.111661
H18	H	0.979600	0.467200	0.541200	0.111661
H19	H	0.133100	0.213100	0.901500	0.111661
H20	H	0.480000	0.642500	0.402700	0.111661
H21	H	0.122800	0.550000	0.917600	0.111661
H22	H	0.380300	0.623800	0.525500	0.111661
H23	H	0.036600	0.207300	0.028400	0.111661
H24	H	0.020400	0.532800	0.041200	0.111661
C1	C	0.109500	0.977100	0.828800	0.813820
C2	C	0.951000	0.983600	0.029700	-0.204100
C3	C	0.597600	0.244800	0.426600	-0.051393
C4	C	0.562800	0.820600	0.327500	0.813820
C5	C	0.984200	0.903300	0.929500	-0.051393
C6	C	0.636900	0.143600	0.322300	0.813820
C7	C	0.045900	0.967900	0.903400	-0.204100
C8	C	0.423300	0.866200	0.529400	-0.204100
C9	C	0.563800	0.915400	0.438800	-0.051393
C10	C	0.524200	0.848900	0.403900	-0.204100
C11	C	0.501900	0.178600	0.525500	-0.204100
C12	C	0.591400	0.173100	0.397100	-0.204100
C13	C	0.928500	0.913900	0.000600	-0.051393
C14	C	0.347700	0.858100	0.599300	0.813820
C15	C	0.543300	0.247800	0.500200	-0.051393
C16	C	0.505000	0.925000	0.510200	-0.051393
C17	C	0.904800	0.015700	0.104100	0.813820
C18	C	0.441100	0.162100	0.600200	0.813820
C19	C	0.890500	0.022900	0.328800	0.813820
C20	C	0.049000	0.016400	0.529700	-0.204100
C21	C	0.402400	0.755200	0.926600	-0.051393
C22	C	0.437200	0.179400	0.827500	0.813820
C23	C	0.015800	0.096700	0.429500	-0.051393
C24	C	0.363100	0.856400	0.822300	0.813820
C25	C	0.954100	0.032100	0.403400	-0.204100
C26	C	0.576700	0.133800	0.029400	-0.204100
C27	C	0.436200	0.084600	0.938800	-0.051393
C28	C	0.475800	0.151100	0.903900	-0.204100
C29	C	0.498100	0.821400	0.025500	-0.204100
C30	C	0.408600	0.826900	0.897100	-0.204100
C31	C	0.071500	0.086100	0.500600	-0.051393
C32	C	0.652300	0.141900	0.099300	0.813820
C33	C	0.456700	0.752200	0.000200	-0.051393
C34	C	0.495000	0.075000	0.010200	-0.051393
C35	C	0.095200	0.984300	0.604100	0.813820
C36	C	0.558900	0.837900	0.100200	0.813820
C37	C	0.390500	0.477100	0.828800	0.813820
C38	C	0.549000	0.483600	0.029700	-0.204100
C39	C	0.902400	0.744800	0.426600	-0.051393
C40	C	0.937200	0.320600	0.327500	0.813820
C41	C	0.515800	0.403300	0.929500	-0.051393
C42	C	0.863100	0.643600	0.322300	0.813820
C43	C	0.454100	0.467900	0.903400	-0.204100
C44	C	0.076700	0.366200	0.529400	-0.204100
C45	C	0.936200	0.415400	0.438800	-0.051393
C46	C	0.975800	0.348900	0.403900	-0.204100
C47	C	0.998100	0.678600	0.525500	-0.204100
C48	C	0.908600	0.673100	0.397100	-0.204100
C49	C	0.571500	0.413900	0.000600	-0.051393
C50	C	0.152300	0.358100	0.599300	0.813820
C51	C	0.956700	0.747800	0.500200	-0.051393
C52	C	0.995000	0.425000	0.510200	-0.051393
C53	C	0.595200	0.515700	0.104100	0.813820
C54	C	0.058900	0.662100	0.600200	0.813820
C55	C	0.609500	0.522900	0.328800	0.813820
C56	C	0.451000	0.516400	0.529700	-0.204100
C57	C	0.097600	0.255200	0.926600	-0.051393
C58	C	0.062800	0.679400	0.827500	0.813820
C59	C	0.484200	0.596700	0.429500	-0.051393
C60	C	0.136900	0.356400	0.822300	0.813820
C61	C	0.545900	0.532100	0.403400	-0.204100
C62	C	0.923300	0.633800	0.029400	-0.204100
C63	C	0.063800	0.584600	0.938800	-0.051393
C64	C	0.024200	0.651100	0.903900	-0.204100
C65	C	0.001900	0.321400	0.025500	-0.204100
C66	C	0.091400	0.326900	0.897100	-0.204100
C67	C	0.428500	0.586100	0.500600	-0.051393
C68	C	0.847700	0.641900	0.099300	0.813820
C69	C	0.043300	0.252200	0.000200	-0.051393
C70	C	0.005000	0.575000	0.010200	-0.051393
C71	C	0.404800	0.484300	0.604100	0.813820
C72	C	0.941100	0.337900	0.100200	0.813820
S1	S	0.038000	0.040520	0.967700	0.174307
S2	S	0.418800	0.797630	0.460220	0.174307
S3	S	0.517500	0.109830	0.457470	0.174307
S4	S	0.962000	0.959480	0.467700	0.174307
S5	S	0.581200	0.202370	0.960220	0.174307
S6	S	0.482500	0.890170	0.957470	0.174307
S7	S	0.462000	0.540520	0.967700	0.174307
S8	S	0.081200	0.297630	0.460220	0.174307
S9	S	0.982500	0.609830	0.457470	0.174307
S10	S	0.538000	0.459480	0.467700	0.174307
S11	S	0.918800	0.702370	0.960220	0.174307
S12	S	0.017500	0.390170	0.957470	0.174307
O1	O	0.175000	0.038100	0.816900	-0.755344
O2	O	0.349200	0.915400	0.645300	-0.755344
O3	O	0.847500	0.970100	0.147300	-0.755344
O4	O	0.105400	0.923600	0.783700	-0.755344
O5	O	0.618000	0.869300	0.285400	-0.755344
O6	O	0.546300	0.752000	0.311600	-0.755344
O7	O	0.410500	0.093000	0.614200	-0.755344
O8	O	0.278200	0.801700	0.610700	-0.755344
O9	O	0.932100	0.085700	0.115800	-0.755344
O10	O	0.691400	0.192300	0.278400	-0.755344
O11	O	0.442400	0.214000	0.647200	-0.755344
O12	O	0.618000	0.075300	0.308400	-0.755344
O13	O	0.825000	0.961900	0.316900	-0.755344
O14	O	0.650800	0.084600	0.145300	-0.755344
O15	O	0.152500	0.029900	0.647300	-0.755344
O16	O	0.894600	0.076400	0.283700	-0.755344
O17	O	0.382000	0.130700	0.785400	-0.755344
O18	O	0.453700	0.248000	0.811600	-0.755344
O19	O	0.589500	0.907000	0.114200	-0.755344
O20	O	0.721800	0.198300	0.110700	-0.755344
O21	O	0.067900	0.914300	0.615800	-0.755344
O22	O	0.308600	0.807700	0.778400	-0.755344
O23	O	0.557600	0.786000	0.147200	-0.755344
O24	O	0.382000	0.924700	0.808400	-0.755344
O25	O	0.325000	0.538100	0.816900	-0.755344
O26	O	0.150800	0.415400	0.645300	-0.755344
O27	O	0.652500	0.470100	0.147300	-0.755344
O28	O	0.394600	0.423600	0.783700	-0.755344
O29	O	0.882000	0.369300	0.285400	-0.755344
O30	O	0.953700	0.252000	0.311600	-0.755344
O31	O	0.089500	0.593000	0.614200	-0.755344
O32	O	0.221800	0.301700	0.610700	-0.755344
O33	O	0.567900	0.585700	0.115800	-0.755344
O34	O	0.808600	0.692300	0.278400	-0.755344
O35	O	0.057600	0.714000	0.647200	-0.755344
O36	O	0.882000	0.575300	0.308400	-0.755344
O37	O	0.675000	0.461900	0.316900	-0.755344
O38	O	0.849200	0.584600	0.145300	-0.755344
O39	O	0.347500	0.529900	0.647300	-0.755344
O40	O	0.605400	0.576400	0.283700	-0.755344
O41	O	0.118000	0.630700	0.785400	-0.755344
O42	O	0.046300	0.748000	0.811600	-0.755344
O43	O	0.910500	0.407000	0.114200	-0.755344
O44	O	0.778200	0.698300	0.110700	-0.755344
O45	O	0.432100	0.414300	0.615800	-0.755344
O46	O	0.191400	0.307700	0.778400	-0.755344
O47	O	0.942400	0.286000	0.147200	-0.755344
O48	O	0.118000	0.424700	0.808400	-0.755344
