data_RAZYIC_clean_PM
_symmetry_space_group_name_H-M	'P1'
_cell_length_a	13.126100
_cell_length_b	17.131500
_cell_length_c	17.131500
_cell_angle_alpha	81.560499
_cell_angle_beta	67.474201
_cell_angle_gamma	67.474301
_symmetry_Int_Tables_number 1

loop_
_symmetry_equiv_pos_as_xyz
'x,y,z'

loop_
_atom_site_label
_atom_site_type_symbol
_atom_site_fract_x
_atom_site_fract_y
_atom_site_fract_z
_atom_site_charge
Cu1	Cu	0.366950	0.250000	0.766100	0.186032
Cu2	Cu	0.883050	0.250000	0.733900	0.186032
Cu3	Cu	0.633050	0.233900	0.750000	0.186032
Cu4	Cu	0.116950	0.266100	0.750000	0.186032
Cu5	Cu	0.633050	0.750000	0.233900	0.186032
Cu6	Cu	0.116950	0.750000	0.266100	0.186032
Cu7	Cu	0.366950	0.766100	0.250000	0.186032
Cu8	Cu	0.883050	0.733900	0.250000	0.186032
H1	H	0.210200	0.182500	0.945700	0.101656
H2	H	0.257300	0.145900	0.856500	0.101656
H3	H	0.267500	0.016000	0.902400	0.077962
H4	H	0.146200	0.075000	0.958600	0.077962
H5	H	0.838400	0.317500	0.554300	0.101656
H6	H	0.759700	0.354100	0.643500	0.101656
H7	H	0.685900	0.484000	0.597600	0.077962
H8	H	0.679800	0.425000	0.541400	0.077962
H9	H	0.655900	0.054300	0.682500	0.101656
H10	H	0.613800	0.143500	0.645900	0.101656
H11	H	0.669900	0.097600	0.516000	0.077962
H12	H	0.604800	0.041400	0.575000	0.077962
H13	H	0.892700	0.445700	0.817500	0.101656
H14	H	0.903200	0.356500	0.854100	0.101656
H15	H	0.783500	0.402400	0.984000	0.077962
H16	H	0.721200	0.458600	0.925000	0.077962
H17	H	0.161600	0.445700	0.682500	0.101656
H18	H	0.240300	0.356500	0.645900	0.101656
H19	H	0.314100	0.402400	0.516000	0.077962
H20	H	0.320200	0.458600	0.575000	0.077962
H21	H	0.789800	0.054300	0.817500	0.101656
H22	H	0.742700	0.143500	0.854100	0.101656
H23	H	0.732500	0.097600	0.984000	0.077962
H24	H	0.853800	0.041400	0.925000	0.077962
H25	H	0.107300	0.182500	0.554300	0.101656
H26	H	0.096800	0.145900	0.643500	0.101656
H27	H	0.216500	0.016000	0.597600	0.077962
H28	H	0.278800	0.075000	0.541400	0.077962
H29	H	0.344100	0.317500	0.945700	0.101656
H30	H	0.386200	0.354100	0.856500	0.101656
H31	H	0.330100	0.484000	0.902400	0.077962
H32	H	0.395200	0.425000	0.958600	0.077962
H33	H	0.789800	0.817500	0.054300	0.101656
H34	H	0.742700	0.854100	0.143500	0.101656
H35	H	0.732500	0.984000	0.097600	0.077962
H36	H	0.853800	0.925000	0.041400	0.077962
H37	H	0.161600	0.682500	0.445700	0.101656
H38	H	0.240300	0.645900	0.356500	0.101656
H39	H	0.314100	0.516000	0.402400	0.077962
H40	H	0.320200	0.575000	0.458600	0.077962
H41	H	0.344100	0.945700	0.317500	0.101656
H42	H	0.386200	0.856500	0.354100	0.101656
H43	H	0.330100	0.902400	0.484000	0.077962
H44	H	0.395200	0.958600	0.425000	0.077962
H45	H	0.107300	0.554300	0.182500	0.101656
H46	H	0.096800	0.643500	0.145900	0.101656
H47	H	0.216500	0.597600	0.016000	0.077962
H48	H	0.278800	0.541400	0.075000	0.077962
H49	H	0.838400	0.554300	0.317500	0.101656
H50	H	0.759700	0.643500	0.354100	0.101656
H51	H	0.685900	0.597600	0.484000	0.077962
H52	H	0.679800	0.541400	0.425000	0.077962
H53	H	0.210200	0.945700	0.182500	0.101656
H54	H	0.257300	0.856500	0.145900	0.101656
H55	H	0.267500	0.902400	0.016000	0.077962
H56	H	0.146200	0.958600	0.075000	0.077962
H57	H	0.892700	0.817500	0.445700	0.101656
H58	H	0.903200	0.854100	0.356500	0.101656
H59	H	0.783500	0.984000	0.402400	0.077962
H60	H	0.721200	0.925000	0.458600	0.077962
H61	H	0.655900	0.682500	0.054300	0.101656
H62	H	0.613800	0.645900	0.143500	0.101656
H63	H	0.669900	0.516000	0.097600	0.077962
H64	H	0.604800	0.575000	0.041400	0.077962
H65	H	0.207800	0.065100	0.065100	0.076172
H66	H	0.838000	0.434900	0.434900	0.076172
H67	H	0.772900	0.934900	0.565100	0.076172
H68	H	0.772900	0.565100	0.934900	0.076172
H69	H	0.162000	0.565100	0.565100	0.076172
H70	H	0.792200	0.934900	0.934900	0.076172
H71	H	0.227100	0.065100	0.434900	0.076172
H72	H	0.227100	0.434900	0.065100	0.076172
C1	C	0.386700	0.119500	0.901700	0.214882
C2	C	0.441300	0.059100	0.952700	-0.055684
C3	C	0.263200	0.134300	0.911100	-0.215013
C4	C	0.229800	0.058500	0.944700	-0.114278
C5	C	0.907900	0.380500	0.598300	0.214882
C6	C	0.953100	0.440900	0.547300	-0.055684
C7	C	0.808600	0.365700	0.588900	-0.215013
C8	C	0.733000	0.441500	0.555300	-0.114278
C9	C	0.788400	0.098300	0.619500	0.214882
C10	C	0.894000	0.047300	0.559100	-0.055684
C11	C	0.674300	0.088900	0.634300	-0.215013
C12	C	0.674500	0.055300	0.558500	-0.114278
C13	C	0.006200	0.401700	0.880500	0.214882
C14	C	0.000400	0.452700	0.940900	-0.055684
C15	C	0.897500	0.411100	0.865700	-0.215013
C16	C	0.788300	0.444700	0.941500	-0.114278
C17	C	0.092100	0.401700	0.619500	0.214882
C18	C	0.046900	0.452700	0.559100	-0.055684
C19	C	0.191400	0.411100	0.634300	-0.215013
C20	C	0.267000	0.444700	0.558500	-0.114278
C21	C	0.613300	0.098300	0.880500	0.214882
C22	C	0.558700	0.047300	0.940900	-0.055684
C23	C	0.736800	0.088900	0.865700	-0.215013
C24	C	0.770200	0.055300	0.941500	-0.114278
C25	C	0.993800	0.119500	0.598300	0.214882
C26	C	0.999600	0.059100	0.547300	-0.055684
C27	C	0.102500	0.134300	0.588900	-0.215013
C28	C	0.211700	0.058500	0.555300	-0.114278
C29	C	0.211600	0.380500	0.901700	0.214882
C30	C	0.106000	0.440900	0.952700	-0.055684
C31	C	0.325700	0.365700	0.911100	-0.215013
C32	C	0.325500	0.441500	0.944700	-0.114278
C33	C	0.613300	0.880500	0.098300	0.214882
C34	C	0.558700	0.940900	0.047300	-0.055684
C35	C	0.736800	0.865700	0.088900	-0.215013
C36	C	0.770200	0.941500	0.055300	-0.114278
C37	C	0.092100	0.619500	0.401700	0.214882
C38	C	0.046900	0.559100	0.452700	-0.055684
C39	C	0.191400	0.634300	0.411100	-0.215013
C40	C	0.267000	0.558500	0.444700	-0.114278
C41	C	0.211600	0.901700	0.380500	0.214882
C42	C	0.106000	0.952700	0.440900	-0.055684
C43	C	0.325700	0.911100	0.365700	-0.215013
C44	C	0.325500	0.944700	0.441500	-0.114278
C45	C	0.993800	0.598300	0.119500	0.214882
C46	C	0.999600	0.547300	0.059100	-0.055684
C47	C	0.102500	0.588900	0.134300	-0.215013
C48	C	0.211700	0.555300	0.058500	-0.114278
C49	C	0.907900	0.598300	0.380500	0.214882
C50	C	0.953100	0.547300	0.440900	-0.055684
C51	C	0.808600	0.588900	0.365700	-0.215013
C52	C	0.733000	0.555300	0.441500	-0.114278
C53	C	0.386700	0.901700	0.119500	0.214882
C54	C	0.441300	0.952700	0.059100	-0.055684
C55	C	0.263200	0.911100	0.134300	-0.215013
C56	C	0.229800	0.944700	0.058500	-0.114278
C57	C	0.006200	0.880500	0.401700	0.214882
C58	C	0.000400	0.940900	0.452700	-0.055684
C59	C	0.897500	0.865700	0.411100	-0.215013
C60	C	0.788300	0.941500	0.444700	-0.114278
C61	C	0.788400	0.619500	0.098300	0.214882
C62	C	0.894000	0.559100	0.047300	-0.055684
C63	C	0.674300	0.634300	0.088900	-0.215013
C64	C	0.674500	0.558500	0.055300	-0.114278
C65	C	0.380700	0.011500	0.011500	0.016138
C66	C	0.256700	0.022800	0.022800	-0.028801
C67	C	0.903700	0.488500	0.488500	0.016138
C68	C	0.802300	0.477200	0.477200	-0.028801
C69	C	0.892200	0.988500	0.511500	0.016138
C70	C	0.779500	0.977200	0.522800	-0.028801
C71	C	0.892200	0.511500	0.988500	0.016138
C72	C	0.779500	0.522800	0.977200	-0.028801
C73	C	0.096300	0.511500	0.511500	0.016138
C74	C	0.197700	0.522800	0.522800	-0.028801
C75	C	0.619300	0.988500	0.988500	0.016138
C76	C	0.743300	0.977200	0.977200	-0.028801
C77	C	0.107800	0.011500	0.488500	0.016138
C78	C	0.220500	0.022800	0.477200	-0.028801
C79	C	0.107800	0.488500	0.011500	0.016138
C80	C	0.220500	0.477200	0.022800	-0.028801
I1	I	0.500000	0.332780	0.667220	-0.347148
I2	I	0.000000	0.167220	0.832780	-0.347148
I3	I	0.667220	0.332780	0.832780	-0.347148
I4	I	0.332780	0.167220	0.667220	-0.347148
I5	I	0.500000	0.667220	0.332780	-0.347148
I6	I	0.000000	0.832780	0.167220	-0.347148
I7	I	0.332780	0.667220	0.167220	-0.347148
I8	I	0.667220	0.832780	0.332780	-0.347148
N1	N	0.441600	0.165100	0.845700	-0.140338
N2	N	0.952400	0.334900	0.654300	-0.140338
N3	N	0.787300	0.154300	0.665100	-0.140338
N4	N	0.106700	0.345700	0.834900	-0.140338
N5	N	0.047600	0.345700	0.665100	-0.140338
N6	N	0.558400	0.154300	0.834900	-0.140338
N7	N	0.893300	0.165100	0.654300	-0.140338
N8	N	0.212700	0.334900	0.845700	-0.140338
N9	N	0.558400	0.834900	0.154300	-0.140338
N10	N	0.047600	0.665100	0.345700	-0.140338
N11	N	0.212700	0.845700	0.334900	-0.140338
N12	N	0.893300	0.654300	0.165100	-0.140338
N13	N	0.952400	0.654300	0.334900	-0.140338
N14	N	0.441600	0.845700	0.165100	-0.140338
N15	N	0.106700	0.834900	0.345700	-0.140338
N16	N	0.787300	0.665100	0.154300	-0.140338
