data_RESWOC_clean_PM
_symmetry_space_group_name_H-M	'P1'
_cell_length_a	11.671000
_cell_length_b	11.891600
_cell_length_c	14.305000
_cell_angle_alpha	110.633002
_cell_angle_beta	99.920001
_cell_angle_gamma	101.350998
_symmetry_Int_Tables_number 1

loop_
_symmetry_equiv_pos_as_xyz
'x,y,z'

loop_
_atom_site_label
_atom_site_type_symbol
_atom_site_fract_x
_atom_site_fract_y
_atom_site_fract_z
_atom_site_charge
Er1	Er	0.901520	0.027800	0.895310	1.471714
Er2	Er	0.584300	0.918400	0.569250	1.471714
Er3	Er	0.098480	0.972200	0.104690	1.471714
Er4	Er	0.415700	0.081600	0.430750	1.471714
C1	C	0.894900	0.750200	0.901500	0.722669
C2	C	0.829800	0.612100	0.845300	-0.232976
C3	C	0.710700	0.566700	0.842900	0.210824
C4	C	0.646800	0.443000	0.786500	0.210824
C5	C	0.701800	0.358500	0.729800	-0.232976
C6	C	0.821800	0.403600	0.733800	0.210824
C7	C	0.884800	0.528500	0.790100	0.210824
C8	C	0.628100	0.228200	0.656900	0.722669
C9	C	0.143800	0.032700	0.891100	0.730659
C10	C	0.266100	0.020100	0.879700	-0.253053
C11	C	0.299000	0.911700	0.869500	0.214363
C12	C	0.411500	0.900200	0.855500	0.210824
C13	C	0.494400	0.995800	0.850100	-0.232976
C14	C	0.462200	0.103900	0.860100	0.210824
C15	C	0.350900	0.116100	0.874600	0.214363
C16	C	0.614400	0.983200	0.827900	0.722669
C17	C	0.868800	0.934200	0.641000	0.722669
C18	C	0.985900	0.926900	0.612500	-0.232976
C19	C	0.017000	0.816400	0.582800	0.210824
C20	C	0.130500	0.810700	0.570500	0.214363
C21	C	0.220300	0.918200	0.587200	-0.253053
C22	C	0.187700	0.029600	0.616000	0.214363
C23	C	0.073500	0.033200	0.626200	0.210824
C24	C	0.343300	0.912500	0.577000	0.730659
C25	C	0.105100	0.249800	0.098500	0.722669
C26	C	0.170200	0.387900	0.154700	-0.232976
C27	C	0.289300	0.433300	0.157100	0.210824
C28	C	0.353200	0.557000	0.213500	0.210824
C29	C	0.298200	0.641500	0.270200	-0.232976
C30	C	0.178200	0.596400	0.266200	0.210824
C31	C	0.115200	0.471500	0.209900	0.210824
C32	C	0.371900	0.771800	0.343100	0.722669
C33	C	0.856200	0.967300	0.108900	0.730659
C34	C	0.733900	0.979900	0.120300	-0.253053
C35	C	0.701000	0.088300	0.130500	0.214363
C36	C	0.588500	0.099800	0.144500	0.210824
C37	C	0.505600	0.004200	0.149900	-0.232976
C38	C	0.537800	0.896100	0.139900	0.210824
C39	C	0.649100	0.883900	0.125400	0.214363
C40	C	0.385600	0.016800	0.172100	0.722669
C41	C	0.131200	0.065800	0.359000	0.722669
C42	C	0.014100	0.073100	0.387500	-0.232976
C43	C	0.983000	0.183600	0.417200	0.210824
C44	C	0.869500	0.189300	0.429500	0.214363
C45	C	0.779700	0.081800	0.412800	-0.253053
C46	C	0.812300	0.970400	0.384000	0.214363
C47	C	0.926500	0.966800	0.373800	0.210824
C48	C	0.656700	0.087500	0.423000	0.730659
O1	O	0.849100	0.818700	0.866500	-0.583808
O2	O	0.984100	0.782300	0.977100	-0.583808
O3	O	0.665400	0.138600	0.667000	-0.583808
O4	O	0.538800	0.222200	0.590900	-0.583808
O5	O	0.091800	0.088700	0.846800	-0.570917
O6	O	0.091700	0.981500	0.943200	-0.660181
O7	O	0.702000	0.006500	0.902900	-0.583808
O8	O	0.618200	0.953600	0.736900	-0.583808
O9	O	0.862300	0.919700	0.721800	-0.583808
O10	O	0.788300	0.950900	0.581000	-0.583808
O11	O	0.406200	0.992700	0.551400	-0.660181
O12	O	0.387500	0.833500	0.595800	-0.570917
O13	O	0.150900	0.181300	0.133500	-0.583808
O14	O	0.015900	0.217700	0.022900	-0.583808
O15	O	0.334600	0.861400	0.333000	-0.583808
O16	O	0.461200	0.777800	0.409100	-0.583808
O17	O	0.908200	0.911300	0.153200	-0.570917
O18	O	0.908300	0.018500	0.056800	-0.660181
O19	O	0.298000	0.993500	0.097100	-0.583808
O20	O	0.381800	0.046400	0.263100	-0.583808
O21	O	0.137700	0.080300	0.278200	-0.583808
O22	O	0.211700	0.049100	0.419000	-0.583808
O23	O	0.593800	0.007300	0.448600	-0.660181
O24	O	0.612500	0.166500	0.404200	-0.570917
F1	F	0.653000	0.643800	0.895400	-0.105733
F2	F	0.530400	0.404800	0.785200	-0.105733
F3	F	0.876900	0.327600	0.677500	-0.105733
F4	F	0.998500	0.568500	0.786000	-0.105733
F5	F	0.221100	0.813100	0.869100	-0.105733
F6	F	0.438400	0.793000	0.845000	-0.105733
F7	F	0.540200	0.199300	0.854700	-0.105733
F8	F	0.326900	0.224000	0.884800	-0.105733
F9	F	0.935200	0.710400	0.566600	-0.105733
F10	F	0.152700	0.699600	0.540500	-0.105733
F11	F	0.270100	0.137800	0.639700	-0.105733
F12	F	0.047800	0.143100	0.655100	-0.105733
F13	F	0.347000	0.356200	0.104600	-0.105733
F14	F	0.469600	0.595200	0.214800	-0.105733
F15	F	0.123100	0.672400	0.322500	-0.105733
F16	F	0.001500	0.431500	0.214000	-0.105733
F17	F	0.778900	0.186900	0.130900	-0.105733
F18	F	0.561600	0.207000	0.155000	-0.105733
F19	F	0.459800	0.800700	0.145300	-0.105733
F20	F	0.673100	0.776000	0.115200	-0.105733
F21	F	0.064800	0.289600	0.433400	-0.105733
F22	F	0.847300	0.300400	0.459500	-0.105733
F23	F	0.729900	0.862200	0.360300	-0.105733
F24	F	0.952200	0.856900	0.344900	-0.105733
