data_REYNUG_PM
_symmetry_space_group_name_H-M	'P1'
_cell_length_a	6.974100
_cell_length_b	21.790000
_cell_length_c	21.790000
_cell_angle_alpha	90.000000
_cell_angle_beta	90.000000
_cell_angle_gamma	90.000000
_symmetry_Int_Tables_number 1

loop_
_symmetry_equiv_pos_as_xyz
'x,y,z'

loop_
_atom_site_label
_atom_site_type_symbol
_atom_site_fract_x
_atom_site_fract_y
_atom_site_fract_z
_atom_site_charge
Zn1	Zn	0.064220	0.118630	0.139204	0.805702
Zn2	Zn	0.564220	0.381370	0.860796	0.805702
Zn3	Zn	0.314220	0.610796	0.368630	0.805702
Zn4	Zn	0.814220	0.889204	0.631370	0.805702
Zn5	Zn	0.564220	0.618630	0.639204	0.805702
Zn6	Zn	0.064220	0.881370	0.360796	0.805702
Zn7	Zn	0.814220	0.110796	0.868630	0.805702
Zn8	Zn	0.314220	0.389204	0.131370	0.805702
Zn9	Zn	0.935780	0.881370	0.860796	0.805702
Zn10	Zn	0.435780	0.618630	0.139204	0.805702
Zn11	Zn	0.685780	0.389204	0.631370	0.805702
Zn12	Zn	0.185780	0.110796	0.368630	0.805702
Zn13	Zn	0.435780	0.381370	0.360796	0.805702
Zn14	Zn	0.935780	0.118630	0.639204	0.805702
Zn15	Zn	0.185780	0.889204	0.131370	0.805702
Zn16	Zn	0.685780	0.610796	0.868630	0.805702
H1	H	0.418200	0.122300	0.110100	0.257823
H2	H	0.918200	0.377700	0.889900	0.257823
H3	H	0.668200	0.639900	0.372300	0.257823
H4	H	0.168200	0.860100	0.627700	0.257823
H5	H	0.918200	0.622300	0.610100	0.257823
H6	H	0.418200	0.877700	0.389900	0.257823
H7	H	0.168200	0.139900	0.872300	0.257823
H8	H	0.668200	0.360100	0.127700	0.257823
H9	H	0.581800	0.877700	0.889900	0.257823
H10	H	0.081800	0.622300	0.110100	0.257823
H11	H	0.331800	0.360100	0.627700	0.257823
H12	H	0.831800	0.139900	0.372300	0.257823
H13	H	0.081800	0.377700	0.389900	0.257823
H14	H	0.581800	0.122300	0.610100	0.257823
H15	H	0.831800	0.860100	0.127700	0.257823
H16	H	0.331800	0.639900	0.872300	0.257823
H17	H	0.417500	0.062100	0.219700	0.129439
H18	H	0.917500	0.437900	0.780300	0.129439
H19	H	0.667500	0.530300	0.312100	0.129439
H20	H	0.167500	0.969700	0.687900	0.129439
H21	H	0.917500	0.562100	0.719700	0.129439
H22	H	0.417500	0.937900	0.280300	0.129439
H23	H	0.167500	0.030300	0.812100	0.129439
H24	H	0.667500	0.469700	0.187900	0.129439
H25	H	0.582500	0.937900	0.780300	0.129439
H26	H	0.082500	0.562100	0.219700	0.129439
H27	H	0.332500	0.469700	0.687900	0.129439
H28	H	0.832500	0.030300	0.312100	0.129439
H29	H	0.082500	0.437900	0.280300	0.129439
H30	H	0.582500	0.062100	0.719700	0.129439
H31	H	0.832500	0.969700	0.187900	0.129439
H32	H	0.332500	0.530300	0.812100	0.129439
H33	H	0.561700	0.052700	0.165200	0.129439
H34	H	0.061700	0.447300	0.834800	0.129439
H35	H	0.811700	0.584800	0.302700	0.129439
H36	H	0.311700	0.915200	0.697300	0.129439
H37	H	0.061700	0.552700	0.665200	0.129439
H38	H	0.561700	0.947300	0.334800	0.129439
H39	H	0.311700	0.084800	0.802700	0.129439
H40	H	0.811700	0.415200	0.197300	0.129439
H41	H	0.438300	0.947300	0.834800	0.129439
H42	H	0.938300	0.552700	0.165200	0.129439
H43	H	0.188300	0.415200	0.697300	0.129439
H44	H	0.688300	0.084800	0.302700	0.129439
H45	H	0.938300	0.447300	0.334800	0.129439
H46	H	0.438300	0.052700	0.665200	0.129439
H47	H	0.688300	0.915200	0.197300	0.129439
H48	H	0.188300	0.584800	0.802700	0.129439
H49	H	0.489800	0.264900	0.173200	0.127517
H50	H	0.989800	0.235100	0.826800	0.127517
H51	H	0.739800	0.576800	0.514900	0.127517
H52	H	0.239800	0.923200	0.485100	0.127517
H53	H	0.989800	0.764900	0.673200	0.127517
H54	H	0.489800	0.735100	0.326800	0.127517
H55	H	0.239800	0.076800	0.014900	0.127517
H56	H	0.739800	0.423200	0.985100	0.127517
H57	H	0.510200	0.735100	0.826800	0.127517
H58	H	0.010200	0.764900	0.173200	0.127517
H59	H	0.260200	0.423200	0.485100	0.127517
H60	H	0.760200	0.076800	0.514900	0.127517
H61	H	0.010200	0.235100	0.326800	0.127517
H62	H	0.510200	0.264900	0.673200	0.127517
H63	H	0.760200	0.923200	0.985100	0.127517
H64	H	0.260200	0.576800	0.014900	0.127517
H65	H	0.477700	0.230000	0.110500	0.127517
H66	H	0.977700	0.270000	0.889500	0.127517
H67	H	0.727700	0.639500	0.480000	0.127517
H68	H	0.227700	0.860500	0.520000	0.127517
H69	H	0.977700	0.730000	0.610500	0.127517
H70	H	0.477700	0.770000	0.389500	0.127517
H71	H	0.227700	0.139500	0.980000	0.127517
H72	H	0.727700	0.360500	0.020000	0.127517
H73	H	0.522300	0.770000	0.889500	0.127517
H74	H	0.022300	0.730000	0.110500	0.127517
H75	H	0.272300	0.360500	0.520000	0.127517
H76	H	0.772300	0.139500	0.480000	0.127517
H77	H	0.022300	0.270000	0.389500	0.127517
H78	H	0.522300	0.230000	0.610500	0.127517
H79	H	0.772300	0.860500	0.020000	0.127517
H80	H	0.272300	0.639500	0.980000	0.127517
H81	H	0.587400	0.165400	0.190300	0.075943
H82	H	0.087400	0.334600	0.809700	0.075943
H83	H	0.837400	0.559700	0.415400	0.075943
H84	H	0.337400	0.940300	0.584600	0.075943
H85	H	0.087400	0.665400	0.690300	0.075943
H86	H	0.587400	0.834600	0.309700	0.075943
H87	H	0.337400	0.059700	0.915400	0.075943
H88	H	0.837400	0.440300	0.084600	0.075943
H89	H	0.412600	0.834600	0.809700	0.075943
H90	H	0.912600	0.665400	0.190300	0.075943
H91	H	0.162600	0.440300	0.584600	0.075943
H92	H	0.662600	0.059700	0.415400	0.075943
H93	H	0.912600	0.334600	0.309700	0.075943
H94	H	0.412600	0.165400	0.690300	0.075943
H95	H	0.662600	0.940300	0.084600	0.075943
H96	H	0.162600	0.559700	0.915400	0.075943
H97	H	0.391000	0.174200	0.224400	0.075943
H98	H	0.891000	0.325800	0.775600	0.075943
H99	H	0.641000	0.525600	0.424200	0.075943
H100	H	0.141000	0.974400	0.575800	0.075943
H101	H	0.891000	0.674200	0.724400	0.075943
H102	H	0.391000	0.825800	0.275600	0.075943
H103	H	0.141000	0.025600	0.924200	0.075943
H104	H	0.641000	0.474400	0.075800	0.075943
H105	H	0.609000	0.825800	0.775600	0.075943
H106	H	0.109000	0.674200	0.224400	0.075943
H107	H	0.359000	0.474400	0.575800	0.075943
H108	H	0.859000	0.025600	0.424200	0.075943
H109	H	0.109000	0.325800	0.275600	0.075943
H110	H	0.609000	0.174200	0.724400	0.075943
H111	H	0.859000	0.974400	0.075800	0.075943
H112	H	0.359000	0.525600	0.924200	0.075943
C1	C	0.304200	0.009170	0.150600	0.677760
C2	C	0.804200	0.490830	0.849400	0.677760
C3	C	0.554200	0.599400	0.259170	0.677760
C4	C	0.054200	0.900600	0.740830	0.677760
C5	C	0.804200	0.509170	0.650600	0.677760
C6	C	0.304200	0.990830	0.349400	0.677760
C7	C	0.054200	0.099400	0.759170	0.677760
C8	C	0.554200	0.400600	0.240830	0.677760
C9	C	0.695800	0.990830	0.849400	0.677760
C10	C	0.195800	0.509170	0.150600	0.677760
C11	C	0.445800	0.400600	0.740830	0.677760
C12	C	0.945800	0.099400	0.259170	0.677760
C13	C	0.195800	0.490830	0.349400	0.677760
C14	C	0.695800	0.009170	0.650600	0.677760
C15	C	0.945800	0.900600	0.240830	0.677760
C16	C	0.445800	0.599400	0.759170	0.677760
C17	C	0.215400	0.252080	0.144570	0.391813
C18	C	0.715400	0.247920	0.855430	0.391813
C19	C	0.465400	0.605430	0.502080	0.391813
C20	C	0.965400	0.894570	0.497920	0.391813
C21	C	0.715400	0.752080	0.644570	0.391813
C22	C	0.215400	0.747920	0.355430	0.391813
C23	C	0.965400	0.105430	0.002080	0.391813
C24	C	0.465400	0.394570	0.997920	0.391813
C25	C	0.784600	0.747920	0.855430	0.391813
C26	C	0.284600	0.752080	0.144570	0.391813
C27	C	0.534600	0.394570	0.497920	0.391813
C28	C	0.034600	0.105430	0.502080	0.391813
C29	C	0.284600	0.247920	0.355430	0.391813
C30	C	0.784600	0.252080	0.644570	0.391813
C31	C	0.034600	0.894570	0.997920	0.391813
C32	C	0.534600	0.605430	0.002080	0.391813
C33	C	0.428600	0.060510	0.175380	-0.185895
C34	C	0.928600	0.439490	0.824620	-0.185895
C35	C	0.678600	0.574620	0.310510	-0.185895
C36	C	0.178600	0.925380	0.689490	-0.185895
C37	C	0.928600	0.560510	0.675380	-0.185895
C38	C	0.428600	0.939490	0.324620	-0.185895
C39	C	0.178600	0.074620	0.810510	-0.185895
C40	C	0.678600	0.425380	0.189490	-0.185895
C41	C	0.571400	0.939490	0.824620	-0.185895
C42	C	0.071400	0.560510	0.175380	-0.185895
C43	C	0.321400	0.425380	0.689490	-0.185895
C44	C	0.821400	0.074620	0.310510	-0.185895
C45	C	0.071400	0.439490	0.324620	-0.185895
C46	C	0.571400	0.060510	0.675380	-0.185895
C47	C	0.821400	0.925380	0.189490	-0.185895
C48	C	0.321400	0.574620	0.810510	-0.185895
C49	C	0.421400	0.233010	0.151100	-0.309423
C50	C	0.921400	0.266990	0.848900	-0.309423
C51	C	0.671400	0.598900	0.483010	-0.309423
C52	C	0.171400	0.901100	0.516990	-0.309423
C53	C	0.921400	0.733010	0.651100	-0.309423
C54	C	0.421400	0.766990	0.348900	-0.309423
C55	C	0.171400	0.098900	0.983010	-0.309423
C56	C	0.671400	0.401100	0.016990	-0.309423
C57	C	0.578600	0.766990	0.848900	-0.309423
C58	C	0.078600	0.733010	0.151100	-0.309423
C59	C	0.328600	0.401100	0.516990	-0.309423
C60	C	0.828600	0.098900	0.483010	-0.309423
C61	C	0.078600	0.266990	0.348900	-0.309423
C62	C	0.578600	0.233010	0.651100	-0.309423
C63	C	0.828600	0.901100	0.016990	-0.309423
C64	C	0.328600	0.598900	0.983010	-0.309423
C65	C	0.451300	0.172310	0.184360	0.058111
C66	C	0.951300	0.327690	0.815640	0.058111
C67	C	0.701300	0.565640	0.422310	0.058111
C68	C	0.201300	0.934360	0.577690	0.058111
C69	C	0.951300	0.672310	0.684360	0.058111
C70	C	0.451300	0.827690	0.315640	0.058111
C71	C	0.201300	0.065640	0.922310	0.058111
C72	C	0.701300	0.434360	0.077690	0.058111
C73	C	0.548700	0.827690	0.815640	0.058111
C74	C	0.048700	0.672310	0.184360	0.058111
C75	C	0.298700	0.434360	0.577690	0.058111
C76	C	0.798700	0.065640	0.422310	0.058111
C77	C	0.048700	0.327690	0.315640	0.058111
C78	C	0.548700	0.172310	0.684360	0.058111
C79	C	0.798700	0.934360	0.077690	0.058111
C80	C	0.298700	0.565640	0.922310	0.058111
N1	N	0.157600	0.309830	0.138670	-0.335308
N2	N	0.657600	0.190170	0.861330	-0.335308
N3	N	0.407600	0.611330	0.559830	-0.335308
N4	N	0.907600	0.888670	0.440170	-0.335308
N5	N	0.657600	0.809830	0.638670	-0.335308
N6	N	0.157600	0.690170	0.361330	-0.335308
N7	N	0.907600	0.111330	0.059830	-0.335308
N8	N	0.407600	0.388670	0.940170	-0.335308
N9	N	0.842400	0.690170	0.861330	-0.335308
N10	N	0.342400	0.809830	0.138670	-0.335308
N11	N	0.592400	0.388670	0.440170	-0.335308
N12	N	0.092400	0.111330	0.559830	-0.335308
N13	N	0.342400	0.190170	0.361330	-0.335308
N14	N	0.842400	0.309830	0.638670	-0.335308
N15	N	0.092400	0.888670	0.940170	-0.335308
N16	N	0.592400	0.611330	0.059830	-0.335308
N17	N	0.368000	0.120270	0.148640	-0.321272
N18	N	0.868000	0.379730	0.851360	-0.321272
N19	N	0.618000	0.601360	0.370270	-0.321272
N20	N	0.118000	0.898640	0.629730	-0.321272
N21	N	0.868000	0.620270	0.648640	-0.321272
N22	N	0.368000	0.879730	0.351360	-0.321272
N23	N	0.118000	0.101360	0.870270	-0.321272
N24	N	0.618000	0.398640	0.129730	-0.321272
N25	N	0.632000	0.879730	0.851360	-0.321272
N26	N	0.132000	0.620270	0.148640	-0.321272
N27	N	0.382000	0.398640	0.629730	-0.321272
N28	N	0.882000	0.101360	0.370270	-0.321272
N29	N	0.132000	0.379730	0.351360	-0.321272
N30	N	0.632000	0.120270	0.648640	-0.321272
N31	N	0.882000	0.898640	0.129730	-0.321272
N32	N	0.382000	0.601360	0.870270	-0.321272
N33	N	0.065300	0.214290	0.143880	-0.335308
N34	N	0.565300	0.285710	0.856120	-0.335308
N35	N	0.315300	0.606120	0.464290	-0.335308
N36	N	0.815300	0.893880	0.535710	-0.335308
N37	N	0.565300	0.714290	0.643880	-0.335308
N38	N	0.065300	0.785710	0.356120	-0.335308
N39	N	0.815300	0.106120	0.964290	-0.335308
N40	N	0.315300	0.393880	0.035710	-0.335308
N41	N	0.934700	0.785710	0.856120	-0.335308
N42	N	0.434700	0.714290	0.143880	-0.335308
N43	N	0.684700	0.393880	0.535710	-0.335308
N44	N	0.184700	0.106120	0.464290	-0.335308
N45	N	0.434700	0.285710	0.356120	-0.335308
N46	N	0.934700	0.214290	0.643880	-0.335308
N47	N	0.184700	0.893880	0.035710	-0.335308
N48	N	0.684700	0.606120	0.964290	-0.335308
N49	N	0.908500	0.250420	0.137870	-0.101805
N50	N	0.408500	0.249580	0.862130	-0.101805
N51	N	0.158500	0.612130	0.500420	-0.101805
N52	N	0.658500	0.887870	0.499580	-0.101805
N53	N	0.408500	0.750420	0.637870	-0.101805
N54	N	0.908500	0.749580	0.362130	-0.101805
N55	N	0.658500	0.112130	0.000420	-0.101805
N56	N	0.158500	0.387870	0.999580	-0.101805
N57	N	0.091500	0.749580	0.862130	-0.101805
N58	N	0.591500	0.750420	0.137870	-0.101805
N59	N	0.841500	0.387870	0.499580	-0.101805
N60	N	0.341500	0.112130	0.500420	-0.101805
N61	N	0.591500	0.249580	0.362130	-0.101805
N62	N	0.091500	0.250420	0.637870	-0.101805
N63	N	0.341500	0.887870	0.999580	-0.101805
N64	N	0.841500	0.612130	0.000420	-0.101805
N65	N	0.962500	0.307530	0.134490	-0.101805
N66	N	0.462500	0.192470	0.865510	-0.101805
N67	N	0.212500	0.615510	0.557530	-0.101805
N68	N	0.712500	0.884490	0.442470	-0.101805
N69	N	0.462500	0.807530	0.634490	-0.101805
N70	N	0.962500	0.692470	0.365510	-0.101805
N71	N	0.712500	0.115510	0.057530	-0.101805
N72	N	0.212500	0.384490	0.942470	-0.101805
N73	N	0.037500	0.692470	0.865510	-0.101805
N74	N	0.537500	0.807530	0.134490	-0.101805
N75	N	0.787500	0.384490	0.442470	-0.101805
N76	N	0.287500	0.115510	0.557530	-0.101805
N77	N	0.537500	0.192470	0.365510	-0.101805
N78	N	0.037500	0.307530	0.634490	-0.101805
N79	N	0.287500	0.884490	0.942470	-0.101805
N80	N	0.787500	0.615510	0.057530	-0.101805
O1	O	0.364900	0.955590	0.157290	-0.583096
O2	O	0.864900	0.544410	0.842710	-0.583096
O3	O	0.614900	0.592710	0.205590	-0.583096
O4	O	0.114900	0.907290	0.794410	-0.583096
O5	O	0.864900	0.455590	0.657290	-0.583096
O6	O	0.364900	0.044410	0.342710	-0.583096
O7	O	0.114900	0.092710	0.705590	-0.583096
O8	O	0.614900	0.407290	0.294410	-0.583096
O9	O	0.635100	0.044410	0.842710	-0.583096
O10	O	0.135100	0.455590	0.157290	-0.583096
O11	O	0.385100	0.407290	0.794410	-0.583096
O12	O	0.885100	0.092710	0.205590	-0.583096
O13	O	0.135100	0.544410	0.342710	-0.583096
O14	O	0.635100	0.955590	0.657290	-0.583096
O15	O	0.885100	0.907290	0.294410	-0.583096
O16	O	0.385100	0.592710	0.705590	-0.583096
O17	O	0.147000	0.022360	0.126940	-0.583096
O18	O	0.647000	0.477640	0.873060	-0.583096
O19	O	0.397000	0.623060	0.272360	-0.583096
O20	O	0.897000	0.876940	0.727640	-0.583096
O21	O	0.647000	0.522360	0.626940	-0.583096
O22	O	0.147000	0.977640	0.373060	-0.583096
O23	O	0.897000	0.123060	0.772360	-0.583096
O24	O	0.397000	0.376940	0.227640	-0.583096
O25	O	0.853000	0.977640	0.873060	-0.583096
O26	O	0.353000	0.522360	0.126940	-0.583096
O27	O	0.603000	0.376940	0.727640	-0.583096
O28	O	0.103000	0.123060	0.272360	-0.583096
O29	O	0.353000	0.477640	0.373060	-0.583096
O30	O	0.853000	0.022360	0.626940	-0.583096
O31	O	0.103000	0.876940	0.227640	-0.583096
O32	O	0.603000	0.623060	0.772360	-0.583096
