data_RIWSUM_clean_PM
_symmetry_space_group_name_H-M	'P1'
_cell_length_a	14.002400
_cell_length_b	16.703900
_cell_length_c	26.822400
_cell_angle_alpha	91.164999
_cell_angle_beta	90.000000
_cell_angle_gamma	90.000000
_symmetry_Int_Tables_number 1

loop_
_symmetry_equiv_pos_as_xyz
'x,y,z'

loop_
_atom_site_label
_atom_site_type_symbol
_atom_site_fract_x
_atom_site_fract_y
_atom_site_fract_z
_atom_site_charge
Cd1	Cd	0.447630	0.559840	0.254910	1.112394
Cd2	Cd	0.690480	0.250280	0.498700	1.112384
Cd3	Cd	0.449210	0.942480	0.752940	1.093660
Cd4	Cd	0.198260	0.251180	0.997580	1.130159
Cd5	Cd	0.947630	0.440160	0.745090	1.112394
Cd6	Cd	0.190480	0.749720	0.501300	1.112384
Cd7	Cd	0.949210	0.057520	0.247060	1.093660
Cd8	Cd	0.698260	0.748820	0.002420	1.130159
H1	H	0.900400	0.279100	0.328700	0.295665
H2	H	0.137500	0.559000	0.319300	0.111667
H3	H	0.985400	0.522400	0.344800	0.111896
H4	H	0.022600	0.301900	0.283500	0.111896
H5	H	0.181300	0.335500	0.264500	0.111667
H6	H	0.717100	0.340300	0.332900	0.103037
H7	H	0.738700	0.225800	0.281700	0.130404
H8	H	0.668700	0.202900	0.326300	0.130404
H9	H	0.778400	0.176200	0.327700	0.130404
H10	H	0.995600	0.211100	0.827100	0.295665
H11	H	0.718100	0.150500	0.765700	0.111667
H12	H	0.874600	0.186600	0.785400	0.111896
H13	H	0.930700	0.959500	0.825700	0.111896
H14	H	0.775500	0.921700	0.803300	0.111667
H15	H	0.183000	0.159300	0.829900	0.103037
H16	H	0.143300	0.276600	0.785100	0.130404
H17	H	0.223600	0.294500	0.826300	0.130404
H18	H	0.115300	0.320700	0.836500	0.130404
H19	H	0.984100	0.283100	0.167100	0.295665
H20	H	0.766700	0.576500	0.193300	0.111667
H21	H	0.917500	0.535600	0.166600	0.111896
H22	H	0.856600	0.308200	0.205200	0.111896
H23	H	0.703900	0.348100	0.229400	0.111667
H24	H	0.169600	0.338800	0.166300	0.103037
H25	H	0.131900	0.218400	0.208300	0.130404
H26	H	0.215100	0.204700	0.168100	0.130404
H27	H	0.108600	0.176000	0.155600	0.130404
H28	H	0.448600	0.748900	0.423000	0.295665
H29	H	0.750500	0.985300	0.443100	0.111667
H30	H	0.731500	0.850600	0.420700	0.111896
H31	H	0.450000	0.866000	0.452800	0.111896
H32	H	0.467300	0.001200	0.472800	0.111667
H33	H	0.552600	0.608600	0.418800	0.102490
H34	H	0.410500	0.614600	0.468700	0.130404
H35	H	0.409200	0.541500	0.429200	0.130404
H36	H	0.348900	0.620700	0.418700	0.130404
H37	H	0.446800	0.749400	0.579400	0.295665
H38	H	0.750600	0.517300	0.547900	0.111667
H39	H	0.731100	0.649300	0.575300	0.111896
H40	H	0.445100	0.626600	0.562800	0.111896
H41	H	0.464100	0.492500	0.538400	0.111667
H42	H	0.551700	0.886800	0.589300	0.102490
H43	H	0.408000	0.883000	0.540000	0.130404
H44	H	0.409000	0.956000	0.579600	0.130404
H45	H	0.347300	0.877600	0.590300	0.130404
H46	H	0.439400	0.758600	0.085700	0.295665
H47	H	0.425800	0.014800	0.045700	0.111667
H48	H	0.444400	0.882700	0.072400	0.111896
H49	H	0.156400	0.860600	0.079400	0.111896
H50	H	0.138800	0.989300	0.049500	0.111667
H51	H	0.330300	0.624300	0.097500	0.102490
H52	H	0.467300	0.625500	0.041900	0.130404
H53	H	0.464000	0.550400	0.078000	0.130404
H54	H	0.534000	0.623900	0.090300	0.130404
H55	H	0.437400	0.745200	0.911300	0.295665
H56	H	0.418800	0.495000	0.969400	0.111667
H57	H	0.439700	0.630700	0.950500	0.111896
H58	H	0.156800	0.648400	0.920700	0.111896
H59	H	0.136900	0.513600	0.937900	0.111667
H60	H	0.331900	0.885500	0.912300	0.102490
H61	H	0.462200	0.889000	0.969400	0.130404
H62	H	0.471000	0.957900	0.929000	0.130404
H63	H	0.534900	0.878700	0.923700	0.130404
H64	H	0.400400	0.720900	0.671300	0.295665
H65	H	0.637500	0.441000	0.680700	0.111667
H66	H	0.485400	0.477600	0.655200	0.111896
H67	H	0.522600	0.698100	0.716500	0.111896
H68	H	0.681300	0.664500	0.735500	0.111667
H69	H	0.217100	0.659700	0.667100	0.103037
H70	H	0.238700	0.774200	0.718300	0.130404
H71	H	0.168700	0.797100	0.673700	0.130404
H72	H	0.278400	0.823800	0.672300	0.130404
H73	H	0.495600	0.788900	0.172900	0.295665
H74	H	0.218100	0.849500	0.234300	0.111667
H75	H	0.374600	0.813400	0.214600	0.111896
H76	H	0.430700	0.040500	0.174300	0.111896
H77	H	0.275500	0.078300	0.196700	0.111667
H78	H	0.683000	0.840700	0.170100	0.103037
H79	H	0.643300	0.723400	0.214900	0.130404
H80	H	0.723600	0.705500	0.173700	0.130404
H81	H	0.615300	0.679300	0.163500	0.130404
H82	H	0.484100	0.716900	0.832900	0.295665
H83	H	0.266700	0.423500	0.806700	0.111667
H84	H	0.417500	0.464400	0.833400	0.111896
H85	H	0.356600	0.691800	0.794800	0.111896
H86	H	0.203900	0.651900	0.770600	0.111667
H87	H	0.669600	0.661200	0.833700	0.103037
H88	H	0.631900	0.781600	0.791700	0.130404
H89	H	0.715100	0.795300	0.831900	0.130404
H90	H	0.608600	0.824000	0.844400	0.130404
H91	H	0.948600	0.251100	0.577000	0.295665
H92	H	0.250500	0.014700	0.556900	0.111667
H93	H	0.231500	0.149400	0.579300	0.111896
H94	H	0.950000	0.134000	0.547200	0.111896
H95	H	0.967300	0.998800	0.527200	0.111667
H96	H	0.052600	0.391400	0.581200	0.102490
H97	H	0.910500	0.385400	0.531300	0.130404
H98	H	0.909200	0.458500	0.570800	0.130404
H99	H	0.848900	0.379300	0.581300	0.130404
H100	H	0.946800	0.250600	0.420600	0.295665
H101	H	0.250600	0.482700	0.452100	0.111667
H102	H	0.231100	0.350700	0.424700	0.111896
H103	H	0.945100	0.373400	0.437200	0.111896
H104	H	0.964100	0.507500	0.461600	0.111667
H105	H	0.051700	0.113200	0.410700	0.102490
H106	H	0.908000	0.117000	0.460000	0.130404
H107	H	0.909000	0.044000	0.420400	0.130404
H108	H	0.847300	0.122400	0.409700	0.130404
H109	H	0.939400	0.241400	0.914300	0.295665
H110	H	0.925800	0.985200	0.954300	0.111667
H111	H	0.944400	0.117300	0.927600	0.111896
H112	H	0.656400	0.139400	0.920600	0.111896
H113	H	0.638800	0.010700	0.950500	0.111667
H114	H	0.830300	0.375700	0.902500	0.102490
H115	H	0.967300	0.374500	0.958100	0.130404
H116	H	0.964000	0.449600	0.922000	0.130404
H117	H	0.034000	0.376100	0.909700	0.130404
H118	H	0.937400	0.254800	0.088700	0.295665
H119	H	0.918800	0.505000	0.030600	0.111667
H120	H	0.939700	0.369300	0.049500	0.111896
H121	H	0.656800	0.351600	0.079300	0.111896
H122	H	0.636900	0.486400	0.062100	0.111667
H123	H	0.831900	0.114500	0.087700	0.102490
H124	H	0.962200	0.111000	0.030600	0.130404
H125	H	0.971000	0.042100	0.071000	0.130404
H126	H	0.034900	0.121300	0.076300	0.130404
C1	C	0.273600	0.476200	0.275410	0.644628
C2	C	0.174000	0.451600	0.289360	-0.104465
C3	C	0.115200	0.506100	0.312800	-0.047017
C4	C	0.024000	0.484800	0.327000	-0.057563
C5	C	0.988200	0.409300	0.315600	-0.088986
C6	C	0.046400	0.353800	0.291660	-0.057563
C7	C	0.140300	0.374300	0.279530	-0.047017
C8	C	0.886800	0.393000	0.330960	0.531800
C9	C	0.759800	0.297000	0.345200	0.089944
C10	C	0.734000	0.218300	0.317740	-0.333903
C11	C	0.740600	0.286100	0.400810	0.657558
C12	C	0.629100	0.008900	0.772600	0.653316
C13	C	0.730600	0.032400	0.783290	-0.106247
C14	C	0.761100	0.111400	0.777760	-0.047017
C15	C	0.854100	0.133000	0.789820	-0.057563
C16	C	0.917300	0.077000	0.808250	-0.088986
C17	C	0.887600	0.998200	0.813360	-0.057563
C18	C	0.794900	0.975900	0.800400	-0.047017
C19	C	0.016400	0.097100	0.825590	0.531800
C20	C	0.136900	0.199500	0.843980	0.088217
C21	C	0.156500	0.279900	0.820930	-0.333903
C22	C	0.154800	0.209500	0.900010	0.613841
C23	C	0.622700	0.494600	0.230740	0.644628
C24	C	0.720300	0.466600	0.214490	-0.104465
C25	C	0.784500	0.521800	0.195400	-0.047017
C26	C	0.874000	0.497500	0.179500	-0.057563
C27	C	0.900600	0.417800	0.182180	-0.088986
C28	C	0.837700	0.362500	0.202010	-0.057563
C29	C	0.747600	0.386500	0.217120	-0.047017
C30	C	0.000500	0.397300	0.164600	0.531800
C31	C	0.125800	0.298000	0.150790	0.088217
C32	C	0.147300	0.217100	0.172630	-0.333903
C33	C	0.146500	0.291700	0.095090	0.613841
C34	C	0.625500	0.094000	0.473470	0.644628
C35	C	0.611400	0.006800	0.460410	-0.104465
C36	C	0.689200	0.961200	0.444920	-0.047017
C37	C	0.678100	0.881000	0.432050	-0.057563
C38	C	0.588800	0.844700	0.435710	-0.088986
C39	C	0.511200	0.890300	0.450760	-0.057563
C40	C	0.521400	0.970500	0.462850	-0.047017
C41	C	0.584700	0.757700	0.421380	0.531800
C42	C	0.493500	0.635500	0.406580	0.083764
C43	C	0.407900	0.599900	0.433170	-0.333352
C44	C	0.483700	0.617600	0.350510	0.623537
C45	C	0.624000	0.405300	0.525560	0.644628
C46	C	0.609200	0.491900	0.540610	-0.104465
C47	C	0.688200	0.539000	0.551540	-0.047017
C48	C	0.676500	0.617500	0.567660	-0.057563
C49	C	0.585700	0.650500	0.572770	-0.088986
C50	C	0.507300	0.604100	0.560680	-0.057563
C51	C	0.518600	0.524500	0.545470	-0.047017
C52	C	0.580800	0.735100	0.592630	0.531800
C53	C	0.492500	0.860300	0.601780	0.087396
C54	C	0.406400	0.897600	0.575540	-0.333352
C55	C	0.483600	0.879400	0.657740	0.636429
C56	C	0.265600	0.098500	0.027130	0.626749
C57	C	0.280500	0.014700	0.044560	-0.100835
C58	C	0.371000	0.983000	0.051990	-0.047017
C59	C	0.382200	0.904600	0.068710	-0.057563
C60	C	0.302500	0.859100	0.079800	-0.088986
C61	C	0.211500	0.891600	0.072290	-0.057563
C62	C	0.201000	0.968200	0.054690	-0.047017
C63	C	0.306200	0.776200	0.099760	0.531800
C64	C	0.392400	0.649600	0.107310	0.083764
C65	C	0.471600	0.608700	0.076620	-0.333352
C66	C	0.410000	0.632200	0.162260	0.623537
C67	C	0.257900	0.406300	0.971130	0.626749
C68	C	0.274800	0.492000	0.957000	-0.100835
C69	C	0.365500	0.526400	0.959920	-0.047017
C70	C	0.377900	0.607300	0.948960	-0.057563
C71	C	0.299900	0.653200	0.935790	-0.088986
C72	C	0.209900	0.617500	0.931090	-0.057563
C73	C	0.198100	0.537600	0.941460	-0.047017
C74	C	0.304500	0.741500	0.926750	0.531800
C75	C	0.393800	0.859600	0.902780	0.087396
C76	C	0.472600	0.899900	0.934040	-0.333352
C77	C	0.410400	0.874600	0.847240	0.636429
C78	C	0.773600	0.523800	0.724590	0.644628
C79	C	0.674000	0.548400	0.710640	-0.104465
C80	C	0.615200	0.493900	0.687200	-0.047017
C81	C	0.524000	0.515200	0.673000	-0.057563
C82	C	0.488200	0.590700	0.684400	-0.088986
C83	C	0.546400	0.646200	0.708340	-0.057563
C84	C	0.640300	0.625700	0.720470	-0.047017
C85	C	0.386800	0.607000	0.669040	0.531800
C86	C	0.259800	0.703000	0.654800	0.089944
C87	C	0.234000	0.781700	0.682260	-0.333903
C88	C	0.240600	0.713900	0.599190	0.657558
C89	C	0.129100	0.991100	0.227400	0.653316
C90	C	0.230600	0.967600	0.216710	-0.106247
C91	C	0.261100	0.888600	0.222240	-0.047017
C92	C	0.354100	0.867000	0.210180	-0.057563
C93	C	0.417300	0.923000	0.191750	-0.088986
C94	C	0.387600	0.001800	0.186640	-0.057563
C95	C	0.294900	0.024100	0.199600	-0.047017
C96	C	0.516400	0.902900	0.174410	0.531800
C97	C	0.636900	0.800500	0.156020	0.088217
C98	C	0.656500	0.720100	0.179070	-0.333903
C99	C	0.654800	0.790500	0.099990	0.613841
C100	C	0.122700	0.505400	0.769260	0.644628
C101	C	0.220300	0.533400	0.785510	-0.104465
C102	C	0.284500	0.478200	0.804600	-0.047017
C103	C	0.374000	0.502500	0.820500	-0.057563
C104	C	0.400600	0.582200	0.817820	-0.088986
C105	C	0.337700	0.637500	0.797990	-0.057563
C106	C	0.247600	0.613500	0.782880	-0.047017
C107	C	0.500500	0.602700	0.835400	0.531800
C108	C	0.625800	0.702000	0.849210	0.088217
C109	C	0.647300	0.782900	0.827370	-0.333903
C110	C	0.646500	0.708300	0.904910	0.613841
C111	C	0.125500	0.906000	0.526530	0.644628
C112	C	0.111400	0.993200	0.539590	-0.104465
C113	C	0.189200	0.038800	0.555080	-0.047017
C114	C	0.178100	0.119000	0.567950	-0.057563
C115	C	0.088800	0.155300	0.564290	-0.088986
C116	C	0.011200	0.109700	0.549240	-0.057563
C117	C	0.021400	0.029500	0.537150	-0.047017
C118	C	0.084700	0.242300	0.578620	0.531800
C119	C	0.993500	0.364500	0.593420	0.083764
C120	C	0.907900	0.400100	0.566830	-0.333352
C121	C	0.983700	0.382400	0.649490	0.623537
C122	C	0.124000	0.594700	0.474440	0.644628
C123	C	0.109200	0.508100	0.459390	-0.104465
C124	C	0.188200	0.461000	0.448460	-0.047017
C125	C	0.176500	0.382500	0.432340	-0.057563
C126	C	0.085700	0.349500	0.427230	-0.088986
C127	C	0.007300	0.395900	0.439320	-0.057563
C128	C	0.018600	0.475500	0.454530	-0.047017
C129	C	0.080800	0.264900	0.407370	0.531800
C130	C	0.992500	0.139700	0.398220	0.087396
C131	C	0.906400	0.102400	0.424460	-0.333352
C132	C	0.983600	0.120600	0.342260	0.636429
C133	C	0.765600	0.901500	0.972870	0.626749
C134	C	0.780500	0.985300	0.955440	-0.100835
C135	C	0.871000	0.017000	0.948010	-0.047017
C136	C	0.882200	0.095400	0.931290	-0.057563
C137	C	0.802500	0.140900	0.920200	-0.088986
C138	C	0.711500	0.108400	0.927710	-0.057563
C139	C	0.701000	0.031800	0.945310	-0.047017
C140	C	0.806200	0.223800	0.900240	0.531800
C141	C	0.892400	0.350400	0.892690	0.083764
C142	C	0.971600	0.391300	0.923380	-0.333352
C143	C	0.910000	0.367800	0.837740	0.623537
C144	C	0.757900	0.593700	0.028870	0.626749
C145	C	0.774800	0.508000	0.043000	-0.100835
C146	C	0.865500	0.473600	0.040080	-0.047017
C147	C	0.877900	0.392700	0.051040	-0.057563
C148	C	0.799900	0.346800	0.064210	-0.088986
C149	C	0.709900	0.382500	0.068910	-0.057563
C150	C	0.698100	0.462400	0.058540	-0.047017
C151	C	0.804500	0.258500	0.073250	0.531800
C152	C	0.893800	0.140400	0.097220	0.087396
C153	C	0.972600	0.100100	0.065960	-0.333352
C154	C	0.910400	0.125400	0.152760	0.636429
N1	N	0.858500	0.317720	0.333820	-0.396350
N2	N	0.039900	0.174380	0.831230	-0.396350
N3	N	0.026800	0.320700	0.162020	-0.396350
N4	N	0.501200	0.720960	0.418090	-0.395540
N5	N	0.498600	0.775080	0.589330	-0.395540
N6	N	0.387300	0.734200	0.095720	-0.395540
N7	N	0.385900	0.775210	0.913600	-0.395540
N8	N	0.358500	0.682280	0.666180	-0.396350
N9	N	0.539900	0.825620	0.168770	-0.396350
N10	N	0.526800	0.679300	0.837980	-0.396350
N11	N	0.001200	0.279040	0.581910	-0.395540
N12	N	0.998600	0.224920	0.410670	-0.395540
N13	N	0.887300	0.265800	0.904280	-0.395540
N14	N	0.885900	0.224790	0.086400	-0.395540
O1	O	0.288220	0.549730	0.269200	-0.543002
O2	O	0.338080	0.424470	0.270980	-0.533175
O3	O	0.832700	0.450740	0.340970	-0.451231
O4	O	0.653620	0.280780	0.414460	-0.566903
O5	O	0.807030	0.279190	0.431530	-0.566903
O6	O	0.565160	0.062060	0.770200	-0.533224
O7	O	0.610850	0.935670	0.766820	-0.553843
O8	O	0.073830	0.043160	0.835590	-0.451231
O9	O	0.241310	0.217000	0.914070	-0.547978
O10	O	0.086510	0.216190	0.929990	-0.547978
O11	O	0.555430	0.444580	0.234200	-0.533175
O12	O	0.611650	0.567340	0.240000	-0.543002
O13	O	0.055740	0.451700	0.152570	-0.451231
O14	O	0.233810	0.290040	0.082110	-0.547978
O15	O	0.080590	0.281750	0.064180	-0.547978
O16	O	0.708900	0.116390	0.484620	-0.543002
O17	O	0.555700	0.140900	0.473550	-0.533175
O18	O	0.658500	0.720600	0.411700	-0.451231
O19	O	0.470630	0.670450	0.319690	-0.533115
O20	O	0.484800	0.543850	0.337920	-0.572806
O21	O	0.706500	0.384270	0.512340	-0.543002
O22	O	0.555200	0.357300	0.526820	-0.533175
O23	O	0.653530	0.767340	0.611040	-0.451231
O24	O	0.464100	0.826860	0.688190	-0.528524
O25	O	0.491640	0.952780	0.670340	-0.567935
O26	O	0.183270	0.118740	0.014030	-0.532793
O27	O	0.335450	0.146440	0.026320	-0.530949
O28	O	0.233200	0.746140	0.118940	-0.451231
O29	O	0.405700	0.558470	0.173500	-0.572806
O30	O	0.429600	0.685290	0.193540	-0.533115
O31	O	0.326620	0.358130	0.972350	-0.530949
O32	O	0.174040	0.386100	0.982100	-0.532793
O33	O	0.229900	0.782660	0.932680	-0.451231
O34	O	0.417400	0.947470	0.835240	-0.567935
O35	O	0.418820	0.819290	0.815950	-0.528524
O36	O	0.788220	0.450270	0.730800	-0.543002
O37	O	0.838080	0.575530	0.729020	-0.533175
O38	O	0.332700	0.549260	0.659030	-0.451231
O39	O	0.153620	0.719220	0.585540	-0.566903
O40	O	0.307030	0.720810	0.568470	-0.566903
O41	O	0.065160	0.937940	0.229800	-0.533224
O42	O	0.110850	0.064330	0.233180	-0.553843
O43	O	0.573830	0.956840	0.164410	-0.451231
O44	O	0.741310	0.783000	0.085930	-0.547978
O45	O	0.586510	0.783810	0.070010	-0.547978
O46	O	0.055430	0.555420	0.765800	-0.533175
O47	O	0.111650	0.432660	0.760000	-0.543002
O48	O	0.555740	0.548300	0.847430	-0.451231
O49	O	0.733810	0.709960	0.917890	-0.547978
O50	O	0.580590	0.718250	0.935820	-0.547978
O51	O	0.208900	0.883610	0.515380	-0.543002
O52	O	0.055700	0.859100	0.526450	-0.533175
O53	O	0.158500	0.279400	0.588300	-0.451231
O54	O	0.970630	0.329550	0.680310	-0.533115
O55	O	0.984800	0.456150	0.662080	-0.572806
O56	O	0.206500	0.615730	0.487660	-0.543002
O57	O	0.055200	0.642700	0.473180	-0.533175
O58	O	0.153530	0.232660	0.388960	-0.451231
O59	O	0.964100	0.173140	0.311810	-0.528524
O60	O	0.991640	0.047220	0.329660	-0.567935
O61	O	0.683270	0.881260	0.985970	-0.532793
O62	O	0.835450	0.853560	0.973680	-0.530949
O63	O	0.733200	0.253860	0.881060	-0.451231
O64	O	0.905700	0.441530	0.826500	-0.572806
O65	O	0.929600	0.314710	0.806460	-0.533115
O66	O	0.826620	0.641870	0.027650	-0.530949
O67	O	0.674040	0.613900	0.017900	-0.532793
O68	O	0.729900	0.217340	0.067320	-0.451231
O69	O	0.917400	0.052530	0.164760	-0.567935
O70	O	0.918820	0.180710	0.184050	-0.528524
