data_RIXBIK_clean_PM
_symmetry_space_group_name_H-M	'P1'
_cell_length_a	8.708000
_cell_length_b	11.663000
_cell_length_c	27.218000
_cell_angle_alpha	101.485000
_cell_angle_beta	90.000000
_cell_angle_gamma	90.000000
_symmetry_Int_Tables_number 1

loop_
_symmetry_equiv_pos_as_xyz
'x,y,z'

loop_
_atom_site_label
_atom_site_type_symbol
_atom_site_fract_x
_atom_site_fract_y
_atom_site_fract_z
_atom_site_charge
Mn1	Mn	0.366130	0.746150	0.803330	0.989100
Mn2	Mn	0.866130	0.753850	0.696670	0.989100
Mn3	Mn	0.633870	0.253850	0.196670	0.989100
Mn4	Mn	0.133870	0.246150	0.303330	0.989100
H1	H	0.951500	0.888400	0.887500	0.314107
H2	H	0.749000	0.768200	0.877700	0.119679
H3	H	0.644000	0.873900	0.872700	0.119679
H4	H	0.863400	0.112600	0.993700	0.105048
H5	H	0.433500	0.190200	0.041400	0.098434
H6	H	0.345900	0.149500	0.959900	0.099655
H7	H	0.520600	0.091300	0.894200	0.102892
H8	H	0.536600	0.940500	0.754500	0.080064
H9	H	0.541700	0.134600	0.753000	0.129413
H10	H	0.188500	0.179000	0.848400	0.129413
H11	H	0.191100	0.981200	0.845200	0.080064
H12	H	0.460100	0.306300	0.733500	0.129413
H13	H	0.462100	0.503600	0.738600	0.080064
H14	H	0.283400	0.558200	0.870600	0.080064
H15	H	0.272500	0.363100	0.869800	0.129413
H16	H	0.451500	0.611600	0.612500	0.314107
H17	H	0.249000	0.731800	0.622300	0.119679
H18	H	0.144000	0.626100	0.627300	0.119679
H19	H	0.363400	0.387400	0.506300	0.105048
H20	H	0.933500	0.309800	0.458600	0.098434
H21	H	0.845900	0.350500	0.540100	0.099655
H22	H	0.020600	0.408700	0.605800	0.102892
H23	H	0.036600	0.559500	0.745500	0.080064
H24	H	0.041700	0.365400	0.747000	0.129413
H25	H	0.688500	0.321000	0.651600	0.129413
H26	H	0.691100	0.518800	0.654800	0.080064
H27	H	0.960100	0.193700	0.766500	0.129413
H28	H	0.962100	0.996400	0.761400	0.080064
H29	H	0.783400	0.941800	0.629400	0.080064
H30	H	0.772500	0.136900	0.630200	0.129413
H31	H	0.048500	0.111600	0.112500	0.314107
H32	H	0.251000	0.231800	0.122300	0.119679
H33	H	0.356000	0.126100	0.127300	0.119679
H34	H	0.136600	0.887400	0.006300	0.105048
H35	H	0.566500	0.809800	0.958600	0.098434
H36	H	0.654100	0.850500	0.040100	0.099655
H37	H	0.479400	0.908700	0.105800	0.102892
H38	H	0.463400	0.059500	0.245500	0.080064
H39	H	0.458300	0.865400	0.247000	0.129413
H40	H	0.811500	0.821000	0.151600	0.129413
H41	H	0.808900	0.018800	0.154800	0.080064
H42	H	0.539900	0.693700	0.266500	0.129413
H43	H	0.537900	0.496400	0.261400	0.080064
H44	H	0.716600	0.441800	0.129400	0.080064
H45	H	0.727500	0.636900	0.130200	0.129413
H46	H	0.548500	0.388400	0.387500	0.314107
H47	H	0.751000	0.268200	0.377700	0.119679
H48	H	0.856000	0.373900	0.372700	0.119679
H49	H	0.636600	0.612600	0.493700	0.105048
H50	H	0.066500	0.690200	0.541400	0.098434
H51	H	0.154100	0.649500	0.459900	0.099655
H52	H	0.979400	0.591300	0.394200	0.102892
H53	H	0.963400	0.440500	0.254500	0.080064
H54	H	0.958300	0.634600	0.253000	0.129413
H55	H	0.311500	0.679000	0.348400	0.129413
H56	H	0.308900	0.481200	0.345200	0.080064
H57	H	0.039900	0.806300	0.233500	0.129413
H58	H	0.037900	0.003600	0.238600	0.080064
H59	H	0.216600	0.058200	0.370600	0.080064
H60	H	0.227500	0.863100	0.369800	0.129413
C1	C	0.732500	0.791100	0.805320	0.685775
C2	C	0.740500	0.835500	0.861900	-0.064175
C3	C	0.706900	0.096700	0.938100	-0.244336
C4	C	0.759600	0.120500	0.987100	0.022555
C5	C	0.657300	0.156200	0.026100	-0.144238
C6	C	0.502600	0.166600	0.015300	-0.038396
C7	C	0.449900	0.142500	0.966700	-0.130880
C8	C	0.554400	0.107300	0.927200	-0.022382
C9	C	0.714500	0.185900	0.079500	0.648461
C10	C	0.464700	0.989300	0.773500	0.188348
C11	C	0.469000	0.105900	0.772400	-0.195333
C12	C	0.364600	0.180900	0.800500	0.090221
C13	C	0.260300	0.132100	0.828500	-0.195333
C14	C	0.263700	0.012900	0.826600	0.188348
C15	C	0.368100	0.308800	0.802100	0.090221
C16	C	0.423800	0.355500	0.762300	-0.195333
C17	C	0.424800	0.475000	0.765800	0.188348
C18	C	0.320500	0.506600	0.842600	0.188348
C19	C	0.313900	0.388900	0.842400	-0.195333
C20	C	0.232500	0.708900	0.694680	0.685775
C21	C	0.240500	0.664500	0.638100	-0.064175
C22	C	0.206900	0.403300	0.561900	-0.244336
C23	C	0.259600	0.379500	0.512900	0.022555
C24	C	0.157300	0.343800	0.473900	-0.144238
C25	C	0.002600	0.333400	0.484700	-0.038396
C26	C	0.949900	0.357500	0.533300	-0.130880
C27	C	0.054400	0.392700	0.572800	-0.022382
C28	C	0.214500	0.314100	0.420500	0.648461
C29	C	0.964700	0.510700	0.726500	0.188348
C30	C	0.969000	0.394100	0.727600	-0.195333
C31	C	0.864600	0.319100	0.699500	0.090221
C32	C	0.760300	0.367900	0.671500	-0.195333
C33	C	0.763700	0.487100	0.673400	0.188348
C34	C	0.868100	0.191200	0.697900	0.090221
C35	C	0.923800	0.144500	0.737700	-0.195333
C36	C	0.924800	0.025000	0.734200	0.188348
C37	C	0.820500	0.993400	0.657400	0.188348
C38	C	0.813900	0.111100	0.657600	-0.195333
C39	C	0.267500	0.208900	0.194680	0.685775
C40	C	0.259500	0.164500	0.138100	-0.064175
C41	C	0.293100	0.903300	0.061900	-0.244336
C42	C	0.240400	0.879500	0.012900	0.022555
C43	C	0.342700	0.843800	0.973900	-0.144238
C44	C	0.497400	0.833400	0.984700	-0.038396
C45	C	0.550100	0.857500	0.033300	-0.130880
C46	C	0.445600	0.892700	0.072800	-0.022382
C47	C	0.285500	0.814100	0.920500	0.648461
C48	C	0.535300	0.010700	0.226500	0.188348
C49	C	0.531000	0.894100	0.227600	-0.195333
C50	C	0.635400	0.819100	0.199500	0.090221
C51	C	0.739700	0.867900	0.171500	-0.195333
C52	C	0.736300	0.987100	0.173400	0.188348
C53	C	0.631900	0.691200	0.197900	0.090221
C54	C	0.576200	0.644500	0.237700	-0.195333
C55	C	0.575200	0.525000	0.234200	0.188348
C56	C	0.679500	0.493400	0.157400	0.188348
C57	C	0.686100	0.611100	0.157600	-0.195333
C58	C	0.767500	0.291100	0.305320	0.685775
C59	C	0.759500	0.335500	0.361900	-0.064175
C60	C	0.793100	0.596700	0.438100	-0.244336
C61	C	0.740400	0.620500	0.487100	0.022555
C62	C	0.842700	0.656200	0.526100	-0.144238
C63	C	0.997400	0.666600	0.515300	-0.038396
C64	C	0.050100	0.642500	0.466700	-0.130880
C65	C	0.945600	0.607300	0.427200	-0.022382
C66	C	0.785500	0.685900	0.579500	0.648461
C67	C	0.035300	0.489300	0.273500	0.188348
C68	C	0.031000	0.605900	0.272400	-0.195333
C69	C	0.135400	0.680900	0.300500	0.090221
C70	C	0.239700	0.632100	0.328500	-0.195333
C71	C	0.236300	0.512900	0.326600	0.188348
C72	C	0.131900	0.808800	0.302100	0.090221
C73	C	0.076200	0.855500	0.262300	-0.195333
C74	C	0.075200	0.975000	0.265800	0.188348
C75	C	0.179500	0.006600	0.342600	0.188348
C76	C	0.186100	0.888900	0.342400	-0.195333
S1	S	0.839900	0.054360	0.888410	1.263620
S2	S	0.339900	0.445640	0.611590	1.263620
S3	S	0.160100	0.945640	0.111590	1.263620
S4	S	0.660100	0.554360	0.388410	1.263620
N1	N	0.864100	0.915600	0.880540	-0.541690
N2	N	0.363800	0.941400	0.800060	-0.356375
N3	N	0.376900	0.551300	0.804970	-0.356375
N4	N	0.364100	0.584400	0.619460	-0.541690
N5	N	0.863800	0.558600	0.699940	-0.356375
N6	N	0.876900	0.948700	0.695030	-0.356375
N7	N	0.135900	0.084400	0.119460	-0.541690
N8	N	0.636200	0.058600	0.199940	-0.356375
N9	N	0.623100	0.448700	0.195030	-0.356375
N10	N	0.635900	0.415600	0.380540	-0.541690
N11	N	0.136200	0.441400	0.300060	-0.356375
N12	N	0.123100	0.051300	0.304970	-0.356375
O1	O	0.609100	0.743600	0.789070	-0.600772
O2	O	0.846900	0.801100	0.778800	-0.600772
O3	O	0.769000	0.077700	0.844100	-0.617477
O4	O	0.984500	0.106300	0.905020	-0.617477
O5	O	0.858300	0.191800	0.085160	-0.596695
O6	O	0.618500	0.208100	0.114030	-0.627381
O7	O	0.109100	0.756400	0.710930	-0.600772
O8	O	0.346900	0.698900	0.721200	-0.600772
O9	O	0.269000	0.422300	0.655900	-0.617477
O10	O	0.484500	0.393700	0.594980	-0.617477
O11	O	0.358300	0.308200	0.414840	-0.596695
O12	O	0.118500	0.291900	0.385970	-0.627381
O13	O	0.390900	0.256400	0.210930	-0.600772
O14	O	0.153100	0.198900	0.221200	-0.600772
O15	O	0.231000	0.922300	0.155900	-0.617477
O16	O	0.015500	0.893700	0.094980	-0.617477
O17	O	0.141700	0.808200	0.914840	-0.596695
O18	O	0.381500	0.791900	0.885970	-0.627381
O19	O	0.890900	0.243600	0.289070	-0.600772
O20	O	0.653100	0.301100	0.278800	-0.600772
O21	O	0.731000	0.577700	0.344100	-0.617477
O22	O	0.515500	0.606300	0.405020	-0.617477
O23	O	0.641700	0.691800	0.585160	-0.596695
O24	O	0.881500	0.708100	0.614030	-0.627381
