data_SAMLAV_manual_PM
_symmetry_space_group_name_H-M	'P1'
_cell_length_a	7.446600
_cell_length_b	14.382100
_cell_length_c	20.914000
_cell_angle_alpha	90.000000
_cell_angle_beta	90.000000
_cell_angle_gamma	90.000000
_symmetry_Int_Tables_number 1

loop_
_symmetry_equiv_pos_as_xyz
'x,y,z'

loop_
_atom_site_label
_atom_site_type_symbol
_atom_site_fract_x
_atom_site_fract_y
_atom_site_fract_z
_atom_site_charge
Cd1	Cd	0.490010	0.110070	0.075580	0.970505
Cd2	Cd	0.486970	0.890340	0.924460	0.970505
Cd3	Cd	0.492690	0.609960	0.424820	0.970505
Cd4	Cd	0.498480	0.389370	0.575750	0.970505
H1	H	0.823250	0.237310	0.019310	0.117605
H2	H	0.822700	0.978780	0.115330	0.117605
H3	H	0.820350	0.761490	0.969000	0.117605
H4	H	0.820540	0.033160	0.891960	0.117605
H5	H	0.160040	0.737960	0.479690	0.117605
H6	H	0.157210	0.477360	0.386380	0.117605
H7	H	0.165180	0.260680	0.521250	0.117605
H8	H	0.165170	0.521480	0.614340	0.117605
H9	H	0.153940	0.761730	0.969020	0.117605
H10	H	0.152010	0.033990	0.893050	0.117605
H11	H	0.157100	0.237270	0.019790	0.117605
H12	H	0.154500	0.978190	0.115080	0.117605
H13	H	0.831220	0.261000	0.521240	0.117605
H14	H	0.833550	0.522460	0.613380	0.117605
H15	H	0.826100	0.738160	0.480090	0.117605
H16	H	0.825510	0.478230	0.385860	0.117605
H17	H	0.597490	0.200670	0.404410	0.120634
H18	H	0.393480	0.445790	0.312740	0.107268
H19	H	0.402200	0.368020	0.209310	0.106837
H20	H	0.380330	0.796460	0.596170	0.120634
H21	H	0.601150	0.555220	0.687610	0.107268
H22	H	0.590080	0.633420	0.791060	0.106837
H23	H	0.589590	0.700120	0.095270	0.120634
H24	H	0.392860	0.946000	0.187940	0.107268
H25	H	0.404700	0.868250	0.291330	0.106837
H26	H	0.605580	0.296530	0.904240	0.120634
H27	H	0.380820	0.055750	0.813460	0.107268
H28	H	0.392620	0.133550	0.709790	0.106837
C1	C	0.893840	0.178670	0.039710	0.099406
C2	C	0.893400	0.035640	0.092750	0.099406
C3	C	0.891080	0.822890	0.952940	0.099406
C4	C	0.890710	0.973240	0.910570	0.099406
C5	C	0.088850	0.679100	0.459850	0.099406
C6	C	0.087660	0.535120	0.408090	0.099406
C7	C	0.094490	0.319810	0.540920	0.099406
C8	C	0.094710	0.464100	0.592320	0.099406
C9	C	0.082920	0.823060	0.953010	0.099406
C10	C	0.082460	0.973560	0.910940	0.099406
C11	C	0.086000	0.178690	0.040050	0.099406
C12	C	0.084920	0.035530	0.092880	0.099406
C13	C	0.902310	0.320030	0.540880	0.099406
C14	C	0.903220	0.464500	0.591990	0.099406
C15	C	0.896670	0.679200	0.460110	0.099406
C16	C	0.896160	0.535390	0.408090	0.099406
C17	C	0.504210	0.237200	0.245150	-0.107358
C18	C	0.560080	0.190800	0.302030	0.013324
C19	C	0.552970	0.237170	0.361970	-0.024729
C20	C	0.496710	0.330380	0.367490	-0.113825
C21	C	0.443350	0.375650	0.310910	-0.072574
C22	C	0.447350	0.330270	0.251130	-0.065632
C23	C	0.497620	0.189760	0.180370	0.662959
C24	C	0.495210	0.379170	0.431810	0.645910
C25	C	0.478750	0.762090	0.755270	-0.107358
C26	C	0.418470	0.807240	0.698510	0.013324
C27	C	0.428200	0.760990	0.638570	-0.024729
C28	C	0.490650	0.668880	0.633010	-0.113825
C29	C	0.547400	0.624590	0.689530	-0.072574
C30	C	0.541600	0.670070	0.749280	-0.065632
C31	C	0.483440	0.809930	0.819920	0.662959
C32	C	0.494350	0.620130	0.568720	0.645910
C33	C	0.503420	0.737030	0.255040	-0.107358
C34	C	0.556280	0.690420	0.197870	0.013324
C35	C	0.547340	0.736790	0.137930	-0.024729
C36	C	0.492180	0.830220	0.132650	-0.113825
C37	C	0.441810	0.875670	0.189520	-0.072574
C38	C	0.447610	0.830310	0.249300	-0.065632
C39	C	0.498620	0.689620	0.319910	0.662959
C40	C	0.488910	0.879140	0.068340	0.645910
C41	C	0.505940	0.261940	0.745280	-0.107358
C42	C	0.567060	0.307100	0.801920	0.013324
C43	C	0.557020	0.261100	0.861930	-0.024729
C44	C	0.493410	0.169230	0.867680	-0.113825
C45	C	0.435700	0.124910	0.811310	-0.072574
C46	C	0.441840	0.170170	0.751470	-0.065632
C47	C	0.501690	0.309550	0.680540	0.662959
C48	C	0.489480	0.120780	0.932050	0.645910
N1	N	0.797320	0.107300	0.066420	-0.289373
N2	N	0.794560	0.897770	0.931400	-0.289373
N3	N	0.184680	0.607260	0.433420	-0.289373
N4	N	0.190920	0.391680	0.567030	-0.289373
N5	N	0.179120	0.898180	0.931700	-0.289373
N6	N	0.181900	0.107330	0.067040	-0.289373
N7	N	0.806350	0.392190	0.566820	-0.289373
N8	N	0.800100	0.607500	0.433870	-0.289373
N9	N	0.631410	0.098120	0.299940	0.594988
N10	N	0.338850	0.898080	0.700810	0.594988
N11	N	0.626350	0.597460	0.199590	0.594988
N12	N	0.647810	0.397670	0.799410	0.594988
O1	O	0.497320	0.102360	0.173370	-0.597822
O2	O	0.490070	0.233050	0.127450	-0.597822
O3	O	0.760320	0.077980	0.260280	-0.370708
O4	O	0.367130	0.956750	0.654530	-0.370708
O5	O	0.584550	0.538820	0.154610	-0.370708
O6	O	0.620760	0.456530	0.845660	-0.370708
O7	O	0.487440	0.897420	0.826540	-0.597822
O8	O	0.485310	0.766960	0.873050	-0.597822
O9	O	0.212230	0.915670	0.741960	-0.370708
O10	O	0.592300	0.039320	0.345130	-0.370708
O11	O	0.498300	0.397020	0.673700	-0.597822
O12	O	0.499580	0.266340	0.627520	-0.597822
O13	O	0.774190	0.414750	0.758070	-0.370708
O14	O	0.498290	0.602220	0.326970	-0.597822
O15	O	0.492560	0.732940	0.372850	-0.597822
O16	O	0.756660	0.576850	0.238550	-0.370708
O17	O	0.494060	0.468040	0.436200	-0.595273
O18	O	0.498240	0.331880	0.484050	-0.595273
O19	O	0.496280	0.531270	0.564320	-0.595273
O20	O	0.492150	0.667460	0.516500	-0.595273
O21	O	0.488960	0.968040	0.064070	-0.595273
O22	O	0.488590	0.831980	0.015990	-0.595273
O23	O	0.488110	0.031970	0.936740	-0.595273
O24	O	0.491180	0.168250	0.984180	-0.595273
