data_SAQQOR_clean_h_PM
_symmetry_space_group_name_H-M	'P1'
_cell_length_a	15.226500
_cell_length_b	15.226499
_cell_length_c	18.579900
_cell_angle_alpha	76.176501
_cell_angle_beta	76.176501
_cell_angle_gamma	68.377701
_symmetry_Int_Tables_number 1

loop_
_symmetry_equiv_pos_as_xyz
'x,y,z'

loop_
_atom_site_label
_atom_site_type_symbol
_atom_site_fract_x
_atom_site_fract_y
_atom_site_fract_z
_atom_site_charge
Y1	Y	0.461930	0.543570	0.104600	2.106524
Y2	Y	0.456430	0.538070	0.395400	2.106524
Y3	Y	0.538070	0.456430	0.895400	2.106524
Y4	Y	0.543570	0.461930	0.604600	2.106524
H1	H	0.478860	0.947530	0.745840	0.107274
H2	H	0.554480	0.045650	0.728720	0.107274
H3	H	0.550410	0.217820	0.694340	0.102136
H4	H	0.387890	0.272190	0.915460	0.102136
H5	H	0.379640	0.106070	0.946760	0.107274
H6	H	0.884240	0.546880	0.107720	0.107274
H7	H	0.727510	0.530310	0.105900	0.102136
H8	H	0.848400	0.410200	0.900310	0.102136
H9	H	0.002580	0.434140	0.898070	0.107274
H10	H	0.461180	0.958010	0.981230	0.107274
H11	H	0.465720	0.788390	0.016560	0.102136
H12	H	0.487000	0.775220	0.779610	0.102136
H13	H	0.052470	0.521140	0.754160	0.107274
H14	H	0.954350	0.445520	0.771280	0.107274
H15	H	0.782180	0.449590	0.805660	0.102136
H16	H	0.727810	0.612110	0.584540	0.102136
H17	H	0.891740	0.620920	0.552800	0.107274
H18	H	0.453120	0.115760	0.392280	0.107274
H19	H	0.469690	0.272490	0.394100	0.102136
H20	H	0.589800	0.151600	0.599690	0.102136
H21	H	0.565860	0.997420	0.601930	0.107274
H22	H	0.041990	0.538820	0.518770	0.107274
H23	H	0.211610	0.534280	0.483440	0.102136
H24	H	0.224030	0.513030	0.720880	0.102136
H25	H	0.521140	0.052470	0.254160	0.107274
H26	H	0.445520	0.954350	0.271280	0.107274
H27	H	0.449590	0.782180	0.305660	0.102136
H28	H	0.612110	0.727810	0.084540	0.102136
H29	H	0.620360	0.893930	0.053240	0.107274
H30	H	0.115760	0.453120	0.892280	0.107274
H31	H	0.272490	0.469690	0.894100	0.102136
H32	H	0.151600	0.589800	0.099690	0.102136
H33	H	0.999690	0.567000	0.103150	0.107274
H34	H	0.538820	0.041990	0.018770	0.107274
H35	H	0.534280	0.211610	0.983440	0.102136
H36	H	0.513030	0.224030	0.220880	0.102136
H37	H	0.947530	0.478860	0.245840	0.107274
H38	H	0.045650	0.554480	0.228720	0.107274
H39	H	0.217820	0.550410	0.194340	0.102136
H40	H	0.272190	0.387890	0.415460	0.102136
H41	H	0.108260	0.379080	0.447200	0.107274
H42	H	0.546880	0.884240	0.607720	0.107274
H43	H	0.530310	0.727510	0.605900	0.102136
H44	H	0.410200	0.848400	0.400310	0.102136
H45	H	0.433000	0.000310	0.396850	0.107274
H46	H	0.958010	0.461180	0.481230	0.107274
H47	H	0.788390	0.465720	0.516560	0.102136
H48	H	0.775970	0.486970	0.279120	0.102136
C1	C	0.476600	0.912200	0.807400	-0.142217
C2	C	0.468900	0.963900	0.861100	0.048582
C3	C	0.465000	0.066200	0.841700	0.048582
C4	C	0.515200	0.097600	0.770200	-0.142217
C5	C	0.515300	0.190500	0.752500	-0.016750
C6	C	0.473600	0.253200	0.803600	-0.155834
C7	C	0.425000	0.221800	0.872600	-0.016750
C8	C	0.420800	0.130200	0.890300	-0.142217
C9	C	0.482510	0.351110	0.785000	0.778587
C10	C	0.954300	0.495500	0.000300	0.048582
C11	C	0.876800	0.519000	0.058500	-0.142217
C12	C	0.789900	0.509300	0.058200	-0.016750
C13	C	0.775800	0.475000	0.002100	-0.155834
C14	C	0.854700	0.444900	0.946000	-0.016750
C15	C	0.939800	0.456600	0.945200	-0.142217
C16	C	0.680500	0.468700	0.000200	0.778587
C17	C	0.466600	0.917800	0.935000	-0.142217
C18	C	0.470700	0.823500	0.954900	-0.016750
C19	C	0.480900	0.769700	0.900700	-0.155834
C20	C	0.481900	0.816100	0.825300	-0.016750
C21	C	0.508900	0.332300	0.079600	0.778587
C22	C	0.087800	0.523400	0.692600	-0.142217
C23	C	0.036100	0.531100	0.638900	0.048582
C24	C	0.933800	0.535000	0.658300	0.048582
C25	C	0.902400	0.484800	0.729800	-0.142217
C26	C	0.809500	0.484700	0.747500	-0.016750
C27	C	0.746800	0.526400	0.696400	-0.155834
C28	C	0.778200	0.575000	0.627400	-0.016750
C29	C	0.869800	0.579200	0.609700	-0.142217
C30	C	0.648890	0.517490	0.715000	0.778587
C31	C	0.504500	0.045700	0.499700	0.048582
C32	C	0.481000	0.123200	0.441500	-0.142217
C33	C	0.490700	0.210100	0.441800	-0.016750
C34	C	0.525000	0.224200	0.497900	-0.155834
C35	C	0.555100	0.145300	0.554000	-0.016750
C36	C	0.543400	0.060200	0.554800	-0.142217
C37	C	0.531300	0.319500	0.499800	0.778587
C38	C	0.082200	0.533400	0.565000	-0.142217
C39	C	0.176500	0.529300	0.545100	-0.016750
C40	C	0.230300	0.519100	0.599300	-0.155834
C41	C	0.183900	0.518100	0.674700	-0.016750
C42	C	0.667700	0.491100	0.420400	0.778587
C43	C	0.523400	0.087800	0.192600	-0.142217
C44	C	0.531100	0.036100	0.138900	0.048582
C45	C	0.535000	0.933800	0.158300	0.048582
C46	C	0.484800	0.902400	0.229800	-0.142217
C47	C	0.484700	0.809500	0.247500	-0.016750
C48	C	0.526400	0.746800	0.196400	-0.155834
C49	C	0.575000	0.778200	0.127400	-0.016750
C50	C	0.579200	0.869800	0.109700	-0.142217
C51	C	0.517490	0.648890	0.215000	0.778587
C52	C	0.045700	0.504500	0.999700	0.048582
C53	C	0.123200	0.481000	0.941500	-0.142217
C54	C	0.210100	0.490700	0.941800	-0.016750
C55	C	0.224200	0.525000	0.997900	-0.155834
C56	C	0.145300	0.555100	0.054000	-0.016750
C57	C	0.060200	0.543400	0.054800	-0.142217
C58	C	0.319500	0.531300	0.999800	0.778587
C59	C	0.533400	0.082200	0.065000	-0.142217
C60	C	0.529300	0.176500	0.045100	-0.016750
C61	C	0.519100	0.230300	0.099300	-0.155834
C62	C	0.518100	0.183900	0.174700	-0.016750
C63	C	0.491100	0.667700	0.920400	0.778587
C64	C	0.912200	0.476600	0.307400	-0.142217
C65	C	0.963900	0.468900	0.361100	0.048582
C66	C	0.066200	0.465000	0.341700	0.048582
C67	C	0.097600	0.515200	0.270200	-0.142217
C68	C	0.190500	0.515300	0.252500	-0.016750
C69	C	0.253200	0.473600	0.303600	-0.155834
C70	C	0.221800	0.425000	0.372600	-0.016750
C71	C	0.130200	0.420800	0.390300	-0.142217
C72	C	0.351110	0.482510	0.285000	0.778587
C73	C	0.495500	0.954300	0.500300	0.048582
C74	C	0.519000	0.876800	0.558500	-0.142217
C75	C	0.509300	0.789900	0.558200	-0.016750
C76	C	0.475000	0.775800	0.502100	-0.155834
C77	C	0.444900	0.854700	0.446000	-0.016750
C78	C	0.456600	0.939800	0.445200	-0.142217
C79	C	0.468700	0.680500	0.500200	0.778587
C80	C	0.917800	0.466600	0.435000	-0.142217
C81	C	0.823500	0.470700	0.454900	-0.016750
C82	C	0.769700	0.480900	0.400700	-0.155834
C83	C	0.816100	0.481900	0.325300	-0.016750
C84	C	0.332300	0.508900	0.579600	0.778587
O1	O	0.491070	0.379270	0.130700	-0.737198
O2	O	0.517610	0.377610	0.719300	-0.737198
O3	O	0.621450	0.476450	0.058800	-0.737198
O4	O	0.460340	0.397540	0.837600	-0.737198
O5	O	0.484550	0.630150	0.988700	-0.737198
O6	O	0.668280	0.455680	0.939100	-0.737198
O7	O	0.620730	0.508930	0.369300	-0.737198
O8	O	0.622390	0.482390	0.780700	-0.737198
O9	O	0.523550	0.378550	0.441200	-0.737198
O10	O	0.602460	0.539660	0.662400	-0.737198
O11	O	0.369850	0.515450	0.511300	-0.737198
O12	O	0.544320	0.331720	0.560900	-0.737198
O13	O	0.508930	0.620730	0.869300	-0.737198
O14	O	0.482390	0.622390	0.280700	-0.737198
O15	O	0.378550	0.523550	0.941200	-0.737198
O16	O	0.539660	0.602460	0.162400	-0.737198
O17	O	0.515450	0.369850	0.011300	-0.737198
O18	O	0.331720	0.544320	0.060900	-0.737198
O19	O	0.379270	0.491070	0.630700	-0.737198
O20	O	0.377610	0.517610	0.219300	-0.737198
O21	O	0.476450	0.621450	0.558800	-0.737198
O22	O	0.397540	0.460340	0.337600	-0.737198
O23	O	0.630150	0.484550	0.488700	-0.737198
O24	O	0.455680	0.668280	0.439100	-0.737198
