data_SERJOP_clean_PM
_symmetry_space_group_name_H-M	'P1'
_cell_length_a	8.438000
_cell_length_b	15.934000
_cell_length_c	27.795000
_cell_angle_alpha	90.000000
_cell_angle_beta	90.000000
_cell_angle_gamma	90.000000
_symmetry_Int_Tables_number 1

loop_
_symmetry_equiv_pos_as_xyz
'x,y,z'

loop_
_atom_site_label
_atom_site_type_symbol
_atom_site_fract_x
_atom_site_fract_y
_atom_site_fract_z
_atom_site_charge
Er1	Er	0.523120	0.698890	0.918680	1.494511
Er2	Er	0.976880	0.198890	0.081320	1.494511
Er3	Er	0.476880	0.301110	0.418680	1.494511
Er4	Er	0.023120	0.801110	0.581320	1.494511
Er5	Er	0.476880	0.301110	0.081320	1.494511
Er6	Er	0.023120	0.801110	0.918680	1.494511
Er7	Er	0.523120	0.698890	0.581320	1.494511
Er8	Er	0.976880	0.198890	0.418680	1.494511
H1	H	0.595200	0.817000	0.044000	0.080162
H2	H	0.226700	0.974800	0.023000	0.109237
H3	H	0.600300	0.038300	0.105800	0.080162
H4	H	0.184000	0.906300	0.820800	0.080162
H5	H	0.904800	0.317000	0.956000	0.080162
H6	H	0.273300	0.474800	0.977000	0.109237
H7	H	0.899700	0.538300	0.894200	0.080162
H8	H	0.316000	0.406300	0.179200	0.080162
H9	H	0.404800	0.183000	0.544000	0.080162
H10	H	0.773300	0.025200	0.523000	0.109237
H11	H	0.399700	0.961700	0.605800	0.080162
H12	H	0.816000	0.093700	0.320800	0.080162
H13	H	0.095200	0.683000	0.456000	0.080162
H14	H	0.726700	0.525200	0.477000	0.109237
H15	H	0.100300	0.461700	0.394200	0.080162
H16	H	0.684000	0.593700	0.679200	0.080162
H17	H	0.404800	0.183000	0.956000	0.080162
H18	H	0.773300	0.025200	0.977000	0.109237
H19	H	0.399700	0.961700	0.894200	0.080162
H20	H	0.816000	0.093700	0.179200	0.080162
H21	H	0.095200	0.683000	0.044000	0.080162
H22	H	0.726700	0.525200	0.023000	0.109237
H23	H	0.100300	0.461700	0.105800	0.080162
H24	H	0.684000	0.593700	0.820800	0.080162
H25	H	0.595200	0.817000	0.456000	0.080162
H26	H	0.226700	0.974800	0.477000	0.109237
H27	H	0.600300	0.038300	0.394200	0.080162
H28	H	0.184000	0.906300	0.679200	0.080162
H29	H	0.904800	0.317000	0.544000	0.080162
H30	H	0.273300	0.474800	0.523000	0.109237
H31	H	0.899700	0.538300	0.605800	0.080162
H32	H	0.316000	0.406300	0.320800	0.080162
H33	H	0.389200	0.715700	0.750000	0.109237
H34	H	0.110800	0.215700	0.250000	0.109237
H35	H	0.610800	0.284300	0.250000	0.109237
H36	H	0.889200	0.784300	0.750000	0.109237
C1	C	0.545700	0.869600	0.049700	0.236614
C2	C	0.400000	0.886200	0.027600	-0.215045
C3	C	0.327200	0.962400	0.036600	0.081436
C4	C	0.403000	0.020600	0.066000	-0.215045
C5	C	0.548000	0.998500	0.085900	0.236614
C6	C	0.327900	0.824200	0.994800	0.723619
C7	C	0.333100	0.105900	0.074100	0.723619
C8	C	0.211600	0.880200	0.791200	0.236614
C9	C	0.289600	0.803200	0.792800	-0.215045
C10	C	0.331000	0.765800	0.839800	0.723619
C11	C	0.954300	0.369600	0.950300	0.236614
C12	C	0.100000	0.386200	0.972400	-0.215045
C13	C	0.172800	0.462400	0.963400	0.081436
C14	C	0.097000	0.520600	0.934000	-0.215045
C15	C	0.952000	0.498500	0.914100	0.236614
C16	C	0.172100	0.324200	0.005200	0.723619
C17	C	0.166900	0.605900	0.925900	0.723619
C18	C	0.288400	0.380200	0.208800	0.236614
C19	C	0.210400	0.303200	0.207200	-0.215045
C20	C	0.169000	0.265800	0.160200	0.723619
C21	C	0.454300	0.130400	0.549700	0.236614
C22	C	0.600000	0.113800	0.527600	-0.215045
C23	C	0.672800	0.037600	0.536600	0.081436
C24	C	0.597000	0.979400	0.566000	-0.215045
C25	C	0.452000	0.001500	0.585900	0.236614
C26	C	0.672100	0.175800	0.494800	0.723619
C27	C	0.666900	0.894100	0.574100	0.723619
C28	C	0.788400	0.119800	0.291200	0.236614
C29	C	0.710400	0.196800	0.292800	-0.215045
C30	C	0.669000	0.234200	0.339800	0.723619
C31	C	0.045700	0.630400	0.450300	0.236614
C32	C	0.900000	0.613800	0.472400	-0.215045
C33	C	0.827200	0.537600	0.463400	0.081436
C34	C	0.903000	0.479400	0.434000	-0.215045
C35	C	0.048000	0.501500	0.414100	0.236614
C36	C	0.827900	0.675800	0.505200	0.723619
C37	C	0.833100	0.394100	0.425900	0.723619
C38	C	0.711600	0.619800	0.708800	0.236614
C39	C	0.789600	0.696800	0.707200	-0.215045
C40	C	0.831000	0.734200	0.660200	0.723619
C41	C	0.454300	0.130400	0.950300	0.236614
C42	C	0.600000	0.113800	0.972400	-0.215045
C43	C	0.672800	0.037600	0.963400	0.081436
C44	C	0.597000	0.979400	0.934000	-0.215045
C45	C	0.452000	0.001500	0.914100	0.236614
C46	C	0.672100	0.175800	0.005200	0.723619
C47	C	0.666900	0.894100	0.925900	0.723619
C48	C	0.788400	0.119800	0.208800	0.236614
C49	C	0.710400	0.196800	0.207200	-0.215045
C50	C	0.669000	0.234200	0.160200	0.723619
C51	C	0.045700	0.630400	0.049700	0.236614
C52	C	0.900000	0.613800	0.027600	-0.215045
C53	C	0.827200	0.537600	0.036600	0.081436
C54	C	0.903000	0.479400	0.066000	-0.215045
C55	C	0.048000	0.501500	0.085900	0.236614
C56	C	0.827900	0.675800	0.994800	0.723619
C57	C	0.833100	0.394100	0.074100	0.723619
C58	C	0.711600	0.619800	0.791200	0.236614
C59	C	0.789600	0.696800	0.792800	-0.215045
C60	C	0.831000	0.734200	0.839800	0.723619
C61	C	0.545700	0.869600	0.450300	0.236614
C62	C	0.400000	0.886200	0.472400	-0.215045
C63	C	0.327200	0.962400	0.463400	0.081436
C64	C	0.403000	0.020600	0.434000	-0.215045
C65	C	0.548000	0.998500	0.414100	0.236614
C66	C	0.327900	0.824200	0.505200	0.723619
C67	C	0.333100	0.105900	0.425900	0.723619
C68	C	0.211600	0.880200	0.708800	0.236614
C69	C	0.289600	0.803200	0.707200	-0.215045
C70	C	0.331000	0.765800	0.660200	0.723619
C71	C	0.954300	0.369600	0.549700	0.236614
C72	C	0.100000	0.386200	0.527600	-0.215045
C73	C	0.172800	0.462400	0.536600	0.081436
C74	C	0.097000	0.520600	0.566000	-0.215045
C75	C	0.952000	0.498500	0.585900	0.236614
C76	C	0.172100	0.324200	0.494800	0.723619
C77	C	0.166900	0.605900	0.574100	0.723619
C78	C	0.288400	0.380200	0.291200	0.236614
C79	C	0.210400	0.303200	0.292800	-0.215045
C80	C	0.169000	0.265800	0.339800	0.723619
C81	C	0.331100	0.766800	0.750000	0.081436
C82	C	0.168900	0.266800	0.250000	0.081436
C83	C	0.668900	0.233200	0.250000	0.081436
C84	C	0.831100	0.733200	0.750000	0.081436
N1	N	0.618000	0.924700	0.078500	-0.392759
N2	N	0.882000	0.424700	0.921500	-0.392759
N3	N	0.382000	0.075300	0.578500	-0.392759
N4	N	0.118000	0.575300	0.421500	-0.392759
N5	N	0.382000	0.075300	0.921500	-0.392759
N6	N	0.118000	0.575300	0.078500	-0.392759
N7	N	0.618000	0.924700	0.421500	-0.392759
N8	N	0.882000	0.424700	0.578500	-0.392759
N9	N	0.173000	0.919800	0.750000	-0.392759
N10	N	0.327000	0.419800	0.250000	-0.392759
N11	N	0.827000	0.080200	0.250000	-0.392759
N12	N	0.673000	0.580200	0.750000	-0.392759
O1	O	0.408000	0.759600	0.984600	-0.611238
O2	O	0.192400	0.838800	0.978200	-0.611238
O3	O	0.423800	0.162000	0.090000	-0.611238
O4	O	0.189900	0.115300	0.063800	-0.611238
O5	O	0.435100	0.708500	0.840900	-0.611238
O6	O	0.267500	0.792100	0.878450	-0.611238
O7	O	0.092000	0.259600	0.015400	-0.611238
O8	O	0.307600	0.338800	0.021800	-0.611238
O9	O	0.076200	0.662000	0.910000	-0.611238
O10	O	0.310100	0.615300	0.936200	-0.611238
O11	O	0.064900	0.208500	0.159100	-0.611238
O12	O	0.232500	0.292100	0.121550	-0.611238
O13	O	0.592000	0.240400	0.484600	-0.611238
O14	O	0.807600	0.161200	0.478200	-0.611238
O15	O	0.576200	0.838000	0.590000	-0.611238
O16	O	0.810100	0.884700	0.563800	-0.611238
O17	O	0.564900	0.291500	0.340900	-0.611238
O18	O	0.732500	0.207900	0.378450	-0.611238
O19	O	0.908000	0.740400	0.515400	-0.611238
O20	O	0.692400	0.661200	0.521800	-0.611238
O21	O	0.923800	0.338000	0.410000	-0.611238
O22	O	0.689900	0.384700	0.436200	-0.611238
O23	O	0.935100	0.791500	0.659100	-0.611238
O24	O	0.767500	0.707900	0.621550	-0.611238
O25	O	0.592000	0.240400	0.015400	-0.611238
O26	O	0.807600	0.161200	0.021800	-0.611238
O27	O	0.576200	0.838000	0.910000	-0.611238
O28	O	0.810100	0.884700	0.936200	-0.611238
O29	O	0.564900	0.291500	0.159100	-0.611238
O30	O	0.732500	0.207900	0.121550	-0.611238
O31	O	0.908000	0.740400	0.984600	-0.611238
O32	O	0.692400	0.661200	0.978200	-0.611238
O33	O	0.923800	0.338000	0.090000	-0.611238
O34	O	0.689900	0.384700	0.063800	-0.611238
O35	O	0.935100	0.791500	0.840900	-0.611238
O36	O	0.767500	0.707900	0.878450	-0.611238
O37	O	0.408000	0.759600	0.515400	-0.611238
O38	O	0.192400	0.838800	0.521800	-0.611238
O39	O	0.423800	0.162000	0.410000	-0.611238
O40	O	0.189900	0.115300	0.436200	-0.611238
O41	O	0.435100	0.708500	0.659100	-0.611238
O42	O	0.267500	0.792100	0.621550	-0.611238
O43	O	0.092000	0.259600	0.484600	-0.611238
O44	O	0.307600	0.338800	0.478200	-0.611238
O45	O	0.076200	0.662000	0.590000	-0.611238
O46	O	0.310100	0.615300	0.563800	-0.611238
O47	O	0.064900	0.208500	0.340900	-0.611238
O48	O	0.232500	0.292100	0.378450	-0.611238
