data_SEYFAE_clean_PM
_symmetry_space_group_name_H-M	'P1'
_cell_length_a	9.008500
_cell_length_b	9.008500
_cell_length_c	15.799000
_cell_angle_alpha	90.000000
_cell_angle_beta	90.000000
_cell_angle_gamma	90.000000
_symmetry_Int_Tables_number 1

loop_
_symmetry_equiv_pos_as_xyz
'x,y,z'

loop_
_atom_site_label
_atom_site_type_symbol
_atom_site_fract_x
_atom_site_fract_y
_atom_site_fract_z
_atom_site_charge
Er1	Er	0.032120	0.389410	0.395680	1.544362
Er2	Er	0.467880	0.610590	0.895680	1.544362
Er3	Er	0.967880	0.889410	0.104320	1.544362
Er4	Er	0.532120	0.110590	0.604320	1.544362
P1	P	0.126670	0.066730	0.294040	1.545335
P2	P	0.373330	0.933270	0.794040	1.545335
P3	P	0.873330	0.566730	0.205960	1.545335
P4	P	0.626670	0.433270	0.705960	1.545335
H1	H	0.142900	0.250300	0.189700	0.175392
H2	H	0.299400	0.176800	0.203000	0.175392
H3	H	0.440600	0.220200	0.313400	0.147601
H4	H	0.460200	0.388800	0.334400	0.147601
H5	H	0.377700	0.480200	0.217200	0.146823
H6	H	0.207000	0.487400	0.197000	0.146823
H7	H	0.269100	0.903900	0.323000	0.435872
H8	H	0.357100	0.749700	0.689700	0.175392
H9	H	0.200600	0.823200	0.703000	0.175392
H10	H	0.059400	0.779800	0.813400	0.147601
H11	H	0.039800	0.611200	0.834400	0.147601
H12	H	0.122300	0.519800	0.717200	0.146823
H13	H	0.293000	0.512600	0.697000	0.146823
H14	H	0.230900	0.096100	0.823000	0.435872
H15	H	0.857100	0.750300	0.310300	0.175392
H16	H	0.700600	0.676800	0.297000	0.175392
H17	H	0.559400	0.720200	0.186600	0.147601
H18	H	0.539800	0.888800	0.165600	0.147601
H19	H	0.622300	0.980200	0.282800	0.146823
H20	H	0.793000	0.987400	0.303000	0.146823
H21	H	0.730900	0.403900	0.177000	0.435872
H22	H	0.642900	0.249700	0.810300	0.175392
H23	H	0.799400	0.323200	0.797000	0.175392
H24	H	0.940600	0.279800	0.686600	0.147601
H25	H	0.960200	0.111200	0.665600	0.147601
H26	H	0.877700	0.019800	0.782800	0.146823
H27	H	0.707000	0.012600	0.803000	0.146823
H28	H	0.769100	0.596100	0.677000	0.435872
C1	C	0.212400	0.214700	0.232000	-0.485596
C2	C	0.392500	0.305400	0.339100	-0.223041
C3	C	0.368000	0.273000	0.431200	0.714567
C4	C	0.279400	0.480000	0.242200	-0.229724
C5	C	0.263100	0.613000	0.302400	0.697919
C6	C	0.287600	0.785300	0.732000	-0.485596
C7	C	0.107500	0.694600	0.839100	-0.223041
C8	C	0.132000	0.727000	0.931200	0.714567
C9	C	0.220600	0.520000	0.742200	-0.229724
C10	C	0.236900	0.387000	0.802400	0.697919
C11	C	0.787600	0.714700	0.268000	-0.485596
C12	C	0.607500	0.805400	0.160900	-0.223041
C13	C	0.632000	0.773000	0.068800	0.714567
C14	C	0.720600	0.980000	0.257800	-0.229724
C15	C	0.736900	0.113000	0.197600	0.697919
C16	C	0.712400	0.285300	0.768000	-0.485596
C17	C	0.892500	0.194600	0.660900	-0.223041
C18	C	0.868000	0.227000	0.568800	0.714567
C19	C	0.779400	0.020000	0.757800	-0.229724
C20	C	0.763100	0.887000	0.697600	0.697919
N1	N	0.256200	0.340100	0.289800	-0.100102
N2	N	0.243800	0.659900	0.789800	-0.100102
N3	N	0.743800	0.840100	0.210200	-0.100102
N4	N	0.756200	0.159900	0.710200	-0.100102
O1	O	0.245000	0.313600	0.465300	-0.613252
O2	O	0.469200	0.207500	0.471100	-0.613252
O3	O	0.316100	0.737400	0.276200	-0.546238
O4	O	0.189300	0.596600	0.370100	-0.628896
O5	O	0.248800	0.982500	0.346500	-0.705237
O6	O	0.050700	0.962800	0.233300	-0.866174
O7	O	0.025700	0.143700	0.355400	-0.866174
O8	O	0.255000	0.686400	0.965300	-0.613252
O9	O	0.030800	0.792500	0.971100	-0.613252
O10	O	0.183900	0.262600	0.776200	-0.546238
O11	O	0.310700	0.403400	0.870100	-0.628896
O12	O	0.251200	0.017500	0.846500	-0.705237
O13	O	0.449300	0.037200	0.733300	-0.866174
O14	O	0.474300	0.856300	0.855400	-0.866174
O15	O	0.755000	0.813600	0.034700	-0.613252
O16	O	0.530800	0.707500	0.028900	-0.613252
O17	O	0.683900	0.237400	0.223800	-0.546238
O18	O	0.810700	0.096600	0.129900	-0.628896
O19	O	0.751200	0.482500	0.153500	-0.705237
O20	O	0.949300	0.462800	0.266700	-0.866174
O21	O	0.974300	0.643700	0.144600	-0.866174
O22	O	0.745000	0.186400	0.534700	-0.613252
O23	O	0.969200	0.292500	0.528900	-0.613252
O24	O	0.816100	0.762600	0.723800	-0.546238
O25	O	0.689300	0.903400	0.629900	-0.628896
O26	O	0.748800	0.517500	0.653500	-0.705237
O27	O	0.550700	0.537200	0.766700	-0.866174
O28	O	0.525700	0.356300	0.644600	-0.866174
