data_SICDAL_clean_PM
_symmetry_space_group_name_H-M	'P1'
_cell_length_a	6.671600
_cell_length_b	7.644400
_cell_length_c	10.546786
_cell_angle_alpha	111.247811
_cell_angle_beta	102.922016
_cell_angle_gamma	89.999997
_symmetry_Int_Tables_number 1

loop_
_symmetry_equiv_pos_as_xyz
'x,y,z'

loop_
_atom_site_label
_atom_site_type_symbol
_atom_site_fract_x
_atom_site_fract_y
_atom_site_fract_z
_atom_site_charge
Ga1	Ga	0.426000	0.112200	0.224000	1.593519
Ga2	Ga	0.926000	0.111800	0.224000	1.593519
H1	H	0.204300	0.224700	0.894600	0.106119
H2	H	0.618900	0.995300	0.548600	0.106119
H3	H	0.053500	0.165500	0.647000	0.106119
H4	H	0.770700	0.054400	0.796200	0.106119
H5	H	0.161000	0.326000	0.187200	0.412193
H6	H	0.704300	0.669900	0.894600	0.106119
H7	H	0.118900	0.553300	0.548600	0.106119
H8	H	0.553500	0.481500	0.647000	0.106119
H9	H	0.270700	0.741800	0.796200	0.106119
H10	H	0.661000	0.861200	0.187200	0.412193
C1	C	0.589300	0.175700	0.007800	0.686789
C2	C	0.498100	0.144900	0.859400	-0.120077
C3	C	0.617100	0.078500	0.763600	-0.062855
C4	C	0.293600	0.176800	0.820600	-0.062855
C5	C	0.530100	0.043000	0.622800	-0.062855
C6	C	0.207200	0.141700	0.679600	-0.062855
C7	C	0.326100	0.075100	0.584000	-0.120077
C8	C	0.229000	0.045600	0.436600	0.686789
C9	C	0.089300	0.832100	0.007800	0.686789
C10	C	0.998100	0.714500	0.859400	-0.120077
C11	C	0.117100	0.685100	0.763600	-0.062855
C12	C	0.793600	0.643800	0.820600	-0.062855
C13	C	0.030100	0.579800	0.622800	-0.062855
C14	C	0.707200	0.537900	0.679600	-0.062855
C15	C	0.826100	0.508900	0.584000	-0.120077
C16	C	0.729000	0.391000	0.436600	0.686789
O1	O	0.472100	0.235000	0.091600	-0.596385
O2	O	0.773200	0.138600	0.046600	-0.596385
O3	O	0.342300	0.996100	0.350400	-0.596385
O4	O	0.041000	0.073500	0.403600	-0.596385
O5	O	0.172600	0.214700	0.213200	-0.926651
O6	O	0.972100	0.856600	0.091600	-0.596385
O7	O	0.273200	0.908000	0.046600	-0.596385
O8	O	0.842300	0.354300	0.350400	-0.596385
O9	O	0.541000	0.330100	0.403600	-0.596385
O10	O	0.672600	0.998500	0.213200	-0.926651
