data_SIPWUK_clean_PM
_symmetry_space_group_name_H-M	'P1'
_cell_length_a	6.692100
_cell_length_b	13.223900
_cell_length_c	13.702300
_cell_angle_alpha	90.000000
_cell_angle_beta	90.000000
_cell_angle_gamma	90.000000
_symmetry_Int_Tables_number 1

loop_
_symmetry_equiv_pos_as_xyz
'x,y,z'

loop_
_atom_site_label
_atom_site_type_symbol
_atom_site_fract_x
_atom_site_fract_y
_atom_site_fract_z
_atom_site_charge
Ca1	Ca	0.000000	0.750000	0.784710	1.669614
Ca2	Ca	0.500000	0.250000	0.715290	1.669614
Ca3	Ca	0.000000	0.250000	0.215290	1.669614
Ca4	Ca	0.500000	0.750000	0.284710	1.669614
Cu1	Cu	0.500000	0.000000	0.500000	1.013258
Cu2	Cu	0.000000	0.500000	0.000000	1.013258
Cu3	Cu	0.500000	0.500000	0.500000	1.013258
Cu4	Cu	0.000000	0.000000	0.000000	1.013258
H1	H	0.372600	0.899300	0.779900	0.180031
H2	H	0.577700	0.886800	0.727000	0.180031
H3	H	0.127400	0.399300	0.720100	0.180031
H4	H	0.922300	0.386800	0.773000	0.180031
H5	H	0.627400	0.600700	0.779900	0.180031
H6	H	0.422300	0.613200	0.727000	0.180031
H7	H	0.872600	0.100700	0.720100	0.180031
H8	H	0.077700	0.113200	0.773000	0.180031
H9	H	0.627400	0.100700	0.220100	0.180031
H10	H	0.422300	0.113200	0.273000	0.180031
H11	H	0.872600	0.600700	0.279900	0.180031
H12	H	0.077700	0.613200	0.227000	0.180031
H13	H	0.372600	0.399300	0.220100	0.180031
H14	H	0.577700	0.386800	0.273000	0.180031
H15	H	0.127400	0.899300	0.279900	0.180031
H16	H	0.922300	0.886800	0.227000	0.180031
C1	C	0.341500	0.852700	0.638700	0.842759
C2	C	0.443100	0.912900	0.719400	-0.603298
C3	C	0.457100	0.025600	0.707500	0.842759
C4	C	0.158500	0.352700	0.861300	0.842759
C5	C	0.056900	0.412900	0.780600	-0.603298
C6	C	0.042900	0.525600	0.792500	0.842759
C7	C	0.658500	0.647300	0.638700	0.842759
C8	C	0.556900	0.587100	0.719400	-0.603298
C9	C	0.542900	0.474400	0.707500	0.842759
C10	C	0.841500	0.147300	0.861300	0.842759
C11	C	0.943100	0.087100	0.780600	-0.603298
C12	C	0.957100	0.974400	0.792500	0.842759
C13	C	0.658500	0.147300	0.361300	0.842759
C14	C	0.556900	0.087100	0.280600	-0.603298
C15	C	0.542900	0.974400	0.292500	0.842759
C16	C	0.841500	0.647300	0.138700	0.842759
C17	C	0.943100	0.587100	0.219400	-0.603298
C18	C	0.957100	0.474400	0.207500	0.842759
C19	C	0.341500	0.352700	0.361300	0.842759
C20	C	0.443100	0.412900	0.280600	-0.603298
C21	C	0.457100	0.525600	0.292500	0.842759
C22	C	0.158500	0.852700	0.138700	0.842759
C23	C	0.056900	0.912900	0.219400	-0.603298
C24	C	0.042900	0.025600	0.207500	0.842759
O1	O	0.367200	0.879100	0.551000	-0.606093
O2	O	0.244800	0.776500	0.663200	-0.785767
O3	O	0.501800	0.066200	0.626400	-0.606093
O4	O	0.433500	0.080700	0.779800	-0.785767
O5	O	0.132800	0.379100	0.949000	-0.606093
O6	O	0.255200	0.276500	0.836800	-0.785767
O7	O	0.998200	0.566200	0.873600	-0.606093
O8	O	0.066500	0.580700	0.720200	-0.785767
O9	O	0.632800	0.620900	0.551000	-0.606093
O10	O	0.755200	0.723500	0.663200	-0.785767
O11	O	0.498200	0.433800	0.626400	-0.606093
O12	O	0.566500	0.419300	0.779800	-0.785767
O13	O	0.867200	0.120900	0.949000	-0.606093
O14	O	0.744800	0.223500	0.836800	-0.785767
O15	O	0.001800	0.933800	0.873600	-0.606093
O16	O	0.933500	0.919300	0.720200	-0.785767
O17	O	0.632800	0.120900	0.449000	-0.606093
O18	O	0.755200	0.223500	0.336800	-0.785767
O19	O	0.498200	0.933800	0.373600	-0.606093
O20	O	0.566500	0.919300	0.220200	-0.785767
O21	O	0.867200	0.620900	0.051000	-0.606093
O22	O	0.744800	0.723500	0.163200	-0.785767
O23	O	0.001800	0.433800	0.126400	-0.606093
O24	O	0.933500	0.419300	0.279800	-0.785767
O25	O	0.367200	0.379100	0.449000	-0.606093
O26	O	0.244800	0.276500	0.336800	-0.785767
O27	O	0.501800	0.566200	0.373600	-0.606093
O28	O	0.433500	0.580700	0.220200	-0.785767
O29	O	0.132800	0.879100	0.051000	-0.606093
O30	O	0.255200	0.776500	0.163200	-0.785767
O31	O	0.998200	0.066200	0.126400	-0.606093
O32	O	0.066500	0.080700	0.279800	-0.785767
