data_SIQQEO_clean_PM
_symmetry_space_group_name_H-M	'P1'
_cell_length_a	11.071100
_cell_length_b	11.071100
_cell_length_c	11.622348
_cell_angle_alpha	117.997835
_cell_angle_beta	117.997835
_cell_angle_gamma	90.823402
_symmetry_Int_Tables_number 1

loop_
_symmetry_equiv_pos_as_xyz
'x,y,z'

loop_
_atom_site_label
_atom_site_type_symbol
_atom_site_fract_x
_atom_site_fract_y
_atom_site_fract_z
_atom_site_charge
Sr1	Sr	0.733540	0.266460	0.000000	1.574569
Sr2	Sr	0.483540	0.516460	0.500000	1.574569
H1	H	0.142300	0.254100	0.393600	0.035482
H2	H	0.932100	0.991700	0.125200	0.119164
H3	H	0.089900	0.042700	0.164400	0.119164
H4	H	0.068800	0.007200	0.273600	0.119164
H5	H	0.967200	0.175400	0.426000	0.119164
H6	H	0.955000	0.318400	0.424200	0.119164
H7	H	0.843900	0.166300	0.274000	0.119164
H8	H	0.745900	0.857700	0.606400	0.035482
H9	H	0.008300	0.067900	0.874800	0.119164
H10	H	0.957300	0.910100	0.835600	0.119164
H11	H	0.992800	0.931200	0.726400	0.119164
H12	H	0.824600	0.032800	0.574000	0.119164
H13	H	0.681600	0.045000	0.575800	0.119164
H14	H	0.833700	0.156100	0.726000	0.119164
H15	H	0.889500	0.501300	0.893600	0.035482
H16	H	0.883500	0.443100	0.625200	0.119164
H17	H	0.871700	0.324500	0.664400	0.119164
H18	H	0.016400	0.454800	0.773600	0.119164
H19	H	0.000600	0.708800	0.926000	0.119164
H20	H	0.855800	0.719200	0.924200	0.119164
H21	H	0.857700	0.680100	0.774000	0.119164
H22	H	0.498700	0.110500	0.106400	0.035482
H23	H	0.556900	0.116500	0.374800	0.119164
H24	H	0.675500	0.128300	0.335600	0.119164
H25	H	0.545200	0.983600	0.226400	0.119164
H26	H	0.291200	0.999400	0.074000	0.119164
H27	H	0.280800	0.144200	0.075800	0.119164
H28	H	0.319900	0.142300	0.226000	0.119164
C1	C	0.661200	0.899200	0.782200	0.727155
C2	C	0.041200	0.198600	0.304200	0.321007
C3	C	0.032300	0.047300	0.208800	-0.398352
C4	C	0.943400	0.216000	0.362000	-0.398352
C5	C	0.100800	0.338800	0.217800	0.727155
C6	C	0.801400	0.958800	0.695800	0.321007
C7	C	0.952700	0.967700	0.791200	-0.398352
C8	C	0.784000	0.056600	0.638000	-0.398352
C9	C	0.633000	0.371000	0.282200	0.727155
C10	C	0.855600	0.513000	0.804200	0.321007
C11	C	0.911500	0.426500	0.708800	-0.398352
C12	C	0.896000	0.668600	0.862000	-0.398352
C13	C	0.629000	0.367000	0.717800	0.727155
C14	C	0.487000	0.144400	0.195800	0.321007
C15	C	0.573500	0.088500	0.291200	-0.398352
C16	C	0.331400	0.104000	0.138000	-0.398352
S1	S	0.609890	0.965450	0.911540	-0.518064
S2	S	0.034550	0.390110	0.088460	-0.518064
S3	S	0.696090	0.551650	0.411540	-0.518064
S4	S	0.448350	0.303910	0.588460	-0.518064
O1	O	0.633500	0.774300	0.685800	-0.684097
O2	O	0.740600	0.004800	0.793400	-0.587046
O3	O	0.225700	0.366500	0.314200	-0.684097
O4	O	0.995200	0.259400	0.206600	-0.587046
O5	O	0.661500	0.302300	0.185800	-0.684097
O6	O	0.538600	0.302800	0.293400	-0.587046
O7	O	0.697700	0.338500	0.814200	-0.684097
O8	O	0.697200	0.461400	0.706600	-0.587046
