data_SIVKAK_clean_PM
_symmetry_space_group_name_H-M	'P1'
_cell_length_a	7.583100
_cell_length_b	13.798900
_cell_length_c	31.086400
_cell_angle_alpha	90.000000
_cell_angle_beta	90.000000
_cell_angle_gamma	90.000000
_symmetry_Int_Tables_number 1

loop_
_symmetry_equiv_pos_as_xyz
'x,y,z'

loop_
_atom_site_label
_atom_site_type_symbol
_atom_site_fract_x
_atom_site_fract_y
_atom_site_fract_z
_atom_site_charge
Mn1	Mn	0.946000	0.087020	0.250000	1.064878
Mn2	Mn	0.554000	0.587020	0.750000	1.064878
Mn3	Mn	0.054000	0.912980	0.750000	1.064878
Mn4	Mn	0.446000	0.412980	0.250000	1.064878
Mn5	Mn	0.500000	0.500000	0.500000	0.605233
Mn6	Mn	0.000000	0.000000	0.500000	0.605233
Mn7	Mn	0.500000	0.500000	0.000000	0.605233
Mn8	Mn	0.000000	0.000000	0.000000	0.605233
Ag1	Ag	0.495850	0.056190	0.381290	0.146189
Ag2	Ag	0.237040	0.242060	0.389740	0.146189
Ag3	Ag	0.004150	0.556190	0.618710	0.146189
Ag4	Ag	0.262960	0.742060	0.610260	0.146189
Ag5	Ag	0.504150	0.943810	0.881290	0.146189
Ag6	Ag	0.762960	0.757940	0.889740	0.146189
Ag7	Ag	0.995850	0.443810	0.118710	0.146189
Ag8	Ag	0.737040	0.257940	0.110260	0.146189
Ag9	Ag	0.504150	0.943810	0.618710	0.146189
Ag10	Ag	0.762960	0.757940	0.610260	0.146189
Ag11	Ag	0.995850	0.443810	0.381290	0.146189
Ag12	Ag	0.737040	0.257940	0.389740	0.146189
Ag13	Ag	0.495850	0.056190	0.118710	0.146189
Ag14	Ag	0.237040	0.242060	0.110260	0.146189
Ag15	Ag	0.004150	0.556190	0.881290	0.146189
Ag16	Ag	0.262960	0.742060	0.889740	0.146189
H1	H	0.643700	0.371300	0.654100	0.134426
H2	H	0.696300	0.167600	0.563000	0.134426
H3	H	0.574300	0.479900	0.601000	0.087490
H4	H	0.636800	0.283600	0.512400	0.087490
H5	H	0.856300	0.871300	0.345900	0.134426
H6	H	0.803700	0.667600	0.437000	0.134426
H7	H	0.925700	0.979900	0.399000	0.087490
H8	H	0.863200	0.783600	0.487600	0.087490
H9	H	0.356300	0.628700	0.154100	0.134426
H10	H	0.303700	0.832400	0.063000	0.134426
H11	H	0.425700	0.520100	0.101000	0.087490
H12	H	0.363200	0.716400	0.012400	0.087490
H13	H	0.143700	0.128700	0.845900	0.134426
H14	H	0.196300	0.332400	0.937000	0.134426
H15	H	0.074300	0.020100	0.899000	0.087490
H16	H	0.136800	0.216400	0.987600	0.087490
H17	H	0.356300	0.628700	0.345900	0.134426
H18	H	0.303700	0.832400	0.437000	0.134426
H19	H	0.425700	0.520100	0.399000	0.087490
H20	H	0.363200	0.716400	0.487600	0.087490
H21	H	0.143700	0.128700	0.654100	0.134426
H22	H	0.196300	0.332400	0.563000	0.134426
H23	H	0.074300	0.020100	0.601000	0.087490
H24	H	0.136800	0.216400	0.512400	0.087490
H25	H	0.643700	0.371300	0.845900	0.134426
H26	H	0.696300	0.167600	0.937000	0.134426
H27	H	0.574300	0.479900	0.899000	0.087490
H28	H	0.636800	0.283600	0.987600	0.087490
H29	H	0.856300	0.871300	0.154100	0.134426
H30	H	0.803700	0.667600	0.063000	0.134426
H31	H	0.925700	0.979900	0.101000	0.087490
H32	H	0.863200	0.783600	0.012400	0.087490
C1	C	0.657200	0.056500	0.328270	0.040909
C2	C	0.336200	0.039230	0.434110	-0.012840
C3	C	0.639500	0.351800	0.625510	-0.129464
C4	C	0.708300	0.185500	0.647240	0.294392
C5	C	0.672600	0.256700	0.613960	0.025369
C6	C	0.672200	0.231000	0.571350	-0.129464
C7	C	0.600100	0.416300	0.593380	0.189165
C8	C	0.162800	0.166440	0.335610	0.040909
C9	C	0.319400	0.327400	0.440140	-0.012840
C10	C	0.635200	0.300750	0.541340	0.189165
C11	C	0.842800	0.556500	0.671730	0.040909
C12	C	0.163800	0.539230	0.565890	-0.012840
C13	C	0.860500	0.851800	0.374490	-0.129464
C14	C	0.791700	0.685500	0.352760	0.294392
C15	C	0.827400	0.756700	0.386040	0.025369
C16	C	0.827800	0.731000	0.428650	-0.129464
C17	C	0.899900	0.916300	0.406620	0.189165
C18	C	0.337200	0.666440	0.664390	0.040909
C19	C	0.180600	0.827400	0.559860	-0.012840
C20	C	0.864800	0.800750	0.458660	0.189165
C21	C	0.342800	0.943500	0.828270	0.040909
C22	C	0.663800	0.960770	0.934110	-0.012840
C23	C	0.360500	0.648200	0.125510	-0.129464
C24	C	0.291700	0.814500	0.147240	0.294392
C25	C	0.327400	0.743300	0.113960	0.025369
C26	C	0.327800	0.769000	0.071350	-0.129464
C27	C	0.399900	0.583700	0.093380	0.189165
C28	C	0.837200	0.833560	0.835610	0.040909
C29	C	0.680600	0.672600	0.940140	-0.012840
C30	C	0.364800	0.699250	0.041340	0.189165
C31	C	0.157200	0.443500	0.171730	0.040909
C32	C	0.836200	0.460770	0.065890	-0.012840
C33	C	0.139500	0.148200	0.874490	-0.129464
C34	C	0.208300	0.314500	0.852760	0.294392
C35	C	0.172600	0.243300	0.886040	0.025369
C36	C	0.172200	0.269000	0.928650	-0.129464
C37	C	0.100100	0.083700	0.906620	0.189165
C38	C	0.662800	0.333560	0.164390	0.040909
C39	C	0.819400	0.172600	0.059860	-0.012840
C40	C	0.135200	0.199250	0.958660	0.189165
C41	C	0.342800	0.943500	0.671730	0.040909
C42	C	0.663800	0.960770	0.565890	-0.012840
C43	C	0.360500	0.648200	0.374490	-0.129464
C44	C	0.291700	0.814500	0.352760	0.294392
C45	C	0.327400	0.743300	0.386040	0.025369
C46	C	0.327800	0.769000	0.428650	-0.129464
C47	C	0.399900	0.583700	0.406620	0.189165
C48	C	0.837200	0.833560	0.664390	0.040909
C49	C	0.680600	0.672600	0.559860	-0.012840
C50	C	0.364800	0.699250	0.458660	0.189165
C51	C	0.157200	0.443500	0.328270	0.040909
C52	C	0.836200	0.460770	0.434110	-0.012840
C53	C	0.139500	0.148200	0.625510	-0.129464
C54	C	0.208300	0.314500	0.647240	0.294392
C55	C	0.172600	0.243300	0.613960	0.025369
C56	C	0.172200	0.269000	0.571350	-0.129464
C57	C	0.100100	0.083700	0.593380	0.189165
C58	C	0.662800	0.333560	0.335610	0.040909
C59	C	0.819400	0.172600	0.440140	-0.012840
C60	C	0.135200	0.199250	0.541340	0.189165
C61	C	0.657200	0.056500	0.171730	0.040909
C62	C	0.336200	0.039230	0.065890	-0.012840
C63	C	0.639500	0.351800	0.874490	-0.129464
C64	C	0.708300	0.185500	0.852760	0.294392
C65	C	0.672600	0.256700	0.886040	0.025369
C66	C	0.672200	0.231000	0.928650	-0.129464
C67	C	0.600100	0.416300	0.906620	0.189165
C68	C	0.162800	0.166440	0.164390	0.040909
C69	C	0.319400	0.327400	0.059860	-0.012840
C70	C	0.635200	0.300750	0.958660	0.189165
C71	C	0.842800	0.556500	0.828270	0.040909
C72	C	0.163800	0.539230	0.934110	-0.012840
C73	C	0.860500	0.851800	0.125510	-0.129464
C74	C	0.791700	0.685500	0.147240	0.294392
C75	C	0.827400	0.756700	0.113960	0.025369
C76	C	0.827800	0.731000	0.071350	-0.129464
C77	C	0.899900	0.916300	0.093380	0.189165
C78	C	0.337200	0.666440	0.835610	0.040909
C79	C	0.180600	0.827400	0.940140	-0.012840
C80	C	0.864800	0.800750	0.041340	0.189165
N1	N	0.750800	0.055600	0.299840	-0.447091
N2	N	0.370200	0.378950	0.465710	-0.283005
N3	N	0.736700	0.130900	0.673490	-0.331005
N4	N	0.596800	0.392470	0.551810	-0.275369
N5	N	0.235300	0.027690	0.460670	-0.283005
N6	N	0.120900	0.130050	0.304600	-0.447091
N7	N	0.749200	0.555600	0.700160	-0.447091
N8	N	0.129800	0.878950	0.534290	-0.283005
N9	N	0.763300	0.630900	0.326510	-0.331005
N10	N	0.903200	0.892470	0.448190	-0.275369
N11	N	0.264700	0.527690	0.539330	-0.283005
N12	N	0.379100	0.630050	0.695400	-0.447091
N13	N	0.249200	0.944400	0.799840	-0.447091
N14	N	0.629800	0.621050	0.965710	-0.283005
N15	N	0.263300	0.869100	0.173490	-0.331005
N16	N	0.403200	0.607530	0.051810	-0.275369
N17	N	0.764700	0.972310	0.960670	-0.283005
N18	N	0.879100	0.869950	0.804600	-0.447091
N19	N	0.250800	0.444400	0.200160	-0.447091
N20	N	0.870200	0.121050	0.034290	-0.283005
N21	N	0.236700	0.369100	0.826510	-0.331005
N22	N	0.096800	0.107530	0.948190	-0.275369
N23	N	0.735300	0.472310	0.039330	-0.283005
N24	N	0.620900	0.369950	0.195400	-0.447091
N25	N	0.249200	0.944400	0.700160	-0.447091
N26	N	0.629800	0.621050	0.534290	-0.283005
N27	N	0.263300	0.869100	0.326510	-0.331005
N28	N	0.403200	0.607530	0.448190	-0.275369
N29	N	0.764700	0.972310	0.539330	-0.283005
N30	N	0.879100	0.869950	0.695400	-0.447091
N31	N	0.250800	0.444400	0.299840	-0.447091
N32	N	0.870200	0.121050	0.465710	-0.283005
N33	N	0.236700	0.369100	0.673490	-0.331005
N34	N	0.096800	0.107530	0.551810	-0.275369
N35	N	0.735300	0.472310	0.460670	-0.283005
N36	N	0.620900	0.369950	0.304600	-0.447091
N37	N	0.750800	0.055600	0.200160	-0.447091
N38	N	0.370200	0.378950	0.034290	-0.283005
N39	N	0.736700	0.130900	0.826510	-0.331005
N40	N	0.596800	0.392470	0.948190	-0.275369
N41	N	0.235300	0.027690	0.039330	-0.283005
N42	N	0.120900	0.130050	0.195400	-0.447091
N43	N	0.749200	0.555600	0.799840	-0.447091
N44	N	0.129800	0.878950	0.965710	-0.283005
N45	N	0.763300	0.630900	0.173490	-0.331005
N46	N	0.903200	0.892470	0.051810	-0.275369
N47	N	0.264700	0.527690	0.960670	-0.283005
N48	N	0.379100	0.630050	0.804600	-0.447091
