data_SOHGUS_clean_PM
_symmetry_space_group_name_H-M	'P1'
_cell_length_a	13.327000
_cell_length_b	14.151000
_cell_length_c	26.532000
_cell_angle_alpha	90.000000
_cell_angle_beta	101.512002
_cell_angle_gamma	90.000000
_symmetry_Int_Tables_number 1

loop_
_symmetry_equiv_pos_as_xyz
'x,y,z'

loop_
_atom_site_label
_atom_site_type_symbol
_atom_site_fract_x
_atom_site_fract_y
_atom_site_fract_z
_atom_site_charge
Co1	Co	0.017060	0.866750	0.269070	0.674557
Co2	Co	0.010550	0.113520	0.243930	0.674557
Co3	Co	0.982940	0.366750	0.230930	0.674557
Co4	Co	0.989450	0.613520	0.256070	0.674557
Co5	Co	0.982940	0.133250	0.730930	0.674557
Co6	Co	0.989450	0.886480	0.756070	0.674557
Co7	Co	0.017060	0.633250	0.769070	0.674557
Co8	Co	0.010550	0.386480	0.743930	0.674557
H1	H	0.269800	0.859300	0.295500	0.100878
H2	H	0.242200	0.118900	0.232800	0.100878
H3	H	0.793800	0.865200	0.294500	0.100878
H4	H	0.765500	0.122600	0.229800	0.100878
H5	H	0.618600	0.864700	0.299000	0.095192
H6	H	0.446900	0.870900	0.302800	0.095192
H7	H	0.415000	0.117400	0.226500	0.095192
H8	H	0.589300	0.122100	0.229700	0.095192
H9	H	0.975200	0.584300	0.376300	0.100878
H10	H	0.017000	0.862600	0.389000	0.100878
H11	H	0.928700	0.856300	0.457300	0.095192
H12	H	0.924300	0.864600	0.545900	0.095192
H13	H	0.015600	0.593300	0.562100	0.095192
H14	H	0.030700	0.587900	0.475100	0.095192
H15	H	0.007000	0.601000	0.649900	0.100878
H16	H	0.930700	0.876100	0.631900	0.100878
H17	H	0.730200	0.359300	0.204500	0.100878
H18	H	0.757800	0.618900	0.267200	0.100878
H19	H	0.206200	0.365200	0.205500	0.100878
H20	H	0.234500	0.622600	0.270200	0.100878
H21	H	0.381400	0.364700	0.201000	0.095192
H22	H	0.553100	0.370900	0.197200	0.095192
H23	H	0.585000	0.617400	0.273500	0.095192
H24	H	0.410700	0.622100	0.270300	0.095192
H25	H	0.024800	0.084300	0.123700	0.100878
H26	H	0.983000	0.362600	0.111000	0.100878
H27	H	0.071300	0.356300	0.042700	0.095192
H28	H	0.075700	0.364600	0.954100	0.095192
H29	H	0.984400	0.093300	0.937900	0.095192
H30	H	0.969300	0.087900	0.024900	0.095192
H31	H	0.993000	0.101000	0.850100	0.100878
H32	H	0.069300	0.376100	0.868100	0.100878
H33	H	0.730200	0.140700	0.704500	0.100878
H34	H	0.757800	0.881100	0.767200	0.100878
H35	H	0.206200	0.134800	0.705500	0.100878
H36	H	0.234500	0.877400	0.770200	0.100878
H37	H	0.381400	0.135300	0.701000	0.095192
H38	H	0.553100	0.129100	0.697200	0.095192
H39	H	0.585000	0.882600	0.773500	0.095192
H40	H	0.410700	0.877900	0.770300	0.095192
H41	H	0.024800	0.415700	0.623700	0.100878
H42	H	0.983000	0.137400	0.611000	0.100878
H43	H	0.071300	0.143700	0.542700	0.095192
H44	H	0.075700	0.135400	0.454100	0.095192
H45	H	0.984400	0.406700	0.437900	0.095192
H46	H	0.969300	0.412100	0.524900	0.095192
H47	H	0.993000	0.399000	0.350100	0.100878
H48	H	0.069300	0.123900	0.368100	0.100878
H49	H	0.269800	0.640700	0.795500	0.100878
H50	H	0.242200	0.381100	0.732800	0.100878
H51	H	0.793800	0.634800	0.794500	0.100878
H52	H	0.765500	0.377400	0.729800	0.100878
H53	H	0.618600	0.635300	0.799000	0.095192
H54	H	0.446900	0.629100	0.802800	0.095192
H55	H	0.415000	0.382600	0.726500	0.095192
H56	H	0.589300	0.377900	0.729700	0.095192
H57	H	0.975200	0.915700	0.876300	0.100878
H58	H	0.017000	0.637400	0.889000	0.100878
H59	H	0.928700	0.643700	0.957300	0.095192
H60	H	0.924300	0.635400	0.045900	0.095192
H61	H	0.015600	0.906700	0.062100	0.095192
H62	H	0.030700	0.912100	0.975100	0.095192
H63	H	0.007000	0.899000	0.149900	0.100878
H64	H	0.930700	0.623900	0.131900	0.100878
C1	C	0.242800	0.917300	0.280500	0.024431
C2	C	0.299300	0.992000	0.263500	-0.111019
C3	C	0.227600	0.059500	0.246400	0.024431
C4	C	0.807900	0.922700	0.278800	0.024431
C5	C	0.732000	0.993900	0.261200	-0.111019
C6	C	0.791300	0.063400	0.243500	0.024431
C7	C	0.624500	0.993500	0.264700	0.062860
C8	C	0.578800	0.918000	0.285500	-0.136998
C9	C	0.475600	0.921100	0.286500	-0.136998
C10	C	0.412800	0.993200	0.265300	0.062860
C11	C	0.457000	0.067400	0.242700	-0.136998
C12	C	0.560400	0.069100	0.243600	-0.136998
C13	C	0.984100	0.648800	0.368400	0.024431
C14	C	0.988700	0.723600	0.403000	-0.111019
C15	C	0.007200	0.800400	0.375400	0.024431
C16	C	0.981400	0.722700	0.458900	0.062860
C17	C	0.948800	0.803200	0.478800	-0.136998
C18	C	0.944700	0.807600	0.531900	-0.136998
C19	C	0.969600	0.732000	0.562500	0.062860
C20	C	0.000100	0.647700	0.541100	-0.136998
C21	C	0.007800	0.643800	0.489100	-0.136998
C22	C	0.993600	0.665400	0.656300	0.024431
C23	C	0.971000	0.738600	0.618400	-0.111019
C24	C	0.952600	0.816300	0.646200	0.024431
C25	C	0.757200	0.417300	0.219500	0.024431
C26	C	0.700700	0.492000	0.236500	-0.111019
C27	C	0.772400	0.559500	0.253600	0.024431
C28	C	0.192100	0.422700	0.221200	0.024431
C29	C	0.268000	0.493900	0.238800	-0.111019
C30	C	0.208700	0.563400	0.256500	0.024431
C31	C	0.375500	0.493500	0.235300	0.062860
C32	C	0.421200	0.418000	0.214500	-0.136998
C33	C	0.524400	0.421100	0.213500	-0.136998
C34	C	0.587200	0.493200	0.234700	0.062860
C35	C	0.543000	0.567400	0.257300	-0.136998
C36	C	0.439600	0.569100	0.256400	-0.136998
C37	C	0.015900	0.148800	0.131600	0.024431
C38	C	0.011300	0.223600	0.097000	-0.111019
C39	C	0.992800	0.300400	0.124600	0.024431
C40	C	0.018600	0.222700	0.041100	0.062860
C41	C	0.051200	0.303200	0.021200	-0.136998
C42	C	0.055300	0.307600	0.968100	-0.136998
C43	C	0.030400	0.232000	0.937500	0.062860
C44	C	0.999900	0.147700	0.958900	-0.136998
C45	C	0.992200	0.143800	0.010900	-0.136998
C46	C	0.006400	0.165400	0.843700	0.024431
C47	C	0.029000	0.238600	0.881600	-0.111019
C48	C	0.047400	0.316300	0.853800	0.024431
C49	C	0.757200	0.082700	0.719500	0.024431
C50	C	0.700700	0.008000	0.736500	-0.111019
C51	C	0.772400	0.940500	0.753600	0.024431
C52	C	0.192100	0.077300	0.721200	0.024431
C53	C	0.268000	0.006100	0.738800	-0.111019
C54	C	0.208700	0.936600	0.756500	0.024431
C55	C	0.375500	0.006500	0.735300	0.062860
C56	C	0.421200	0.082000	0.714500	-0.136998
C57	C	0.524400	0.078900	0.713500	-0.136998
C58	C	0.587200	0.006800	0.734700	0.062860
C59	C	0.543000	0.932600	0.757300	-0.136998
C60	C	0.439600	0.930900	0.756400	-0.136998
C61	C	0.015900	0.351200	0.631600	0.024431
C62	C	0.011300	0.276400	0.597000	-0.111019
C63	C	0.992800	0.199600	0.624600	0.024431
C64	C	0.018600	0.277300	0.541100	0.062860
C65	C	0.051200	0.196800	0.521200	-0.136998
C66	C	0.055300	0.192400	0.468100	-0.136998
C67	C	0.030400	0.268000	0.437500	0.062860
C68	C	0.999900	0.352300	0.458900	-0.136998
C69	C	0.992200	0.356200	0.510900	-0.136998
C70	C	0.006400	0.334600	0.343700	0.024431
C71	C	0.029000	0.261400	0.381600	-0.111019
C72	C	0.047400	0.183700	0.353800	0.024431
C73	C	0.242800	0.582700	0.780500	0.024431
C74	C	0.299300	0.508000	0.763500	-0.111019
C75	C	0.227600	0.440500	0.746400	0.024431
C76	C	0.807900	0.577300	0.778800	0.024431
C77	C	0.732000	0.506100	0.761200	-0.111019
C78	C	0.791300	0.436600	0.743500	0.024431
C79	C	0.624500	0.506500	0.764700	0.062860
C80	C	0.578800	0.582000	0.785500	-0.136998
C81	C	0.475600	0.578900	0.786500	-0.136998
C82	C	0.412800	0.506800	0.765300	0.062860
C83	C	0.457000	0.432600	0.742700	-0.136998
C84	C	0.560400	0.430900	0.743600	-0.136998
C85	C	0.984100	0.851200	0.868400	0.024431
C86	C	0.988700	0.776400	0.903000	-0.111019
C87	C	0.007200	0.699600	0.875400	0.024431
C88	C	0.981400	0.777300	0.958900	0.062860
C89	C	0.948800	0.696800	0.978800	-0.136998
C90	C	0.944700	0.692400	0.031900	-0.136998
C91	C	0.969600	0.768000	0.062500	0.062860
C92	C	0.000100	0.852300	0.041100	-0.136998
C93	C	0.007800	0.856200	0.989100	-0.136998
C94	C	0.993600	0.834600	0.156300	0.024431
C95	C	0.971000	0.761400	0.118400	-0.111019
C96	C	0.952600	0.683700	0.146200	0.024431
N1	N	0.143300	0.944400	0.271400	-0.228063
N2	N	0.133700	0.031400	0.251100	-0.228063
N3	N	0.899200	0.946000	0.270600	-0.228063
N4	N	0.888400	0.036300	0.248200	-0.228063
N5	N	0.994600	0.683200	0.320100	-0.228063
N6	N	0.010100	0.776300	0.324100	-0.228063
N7	N	0.992500	0.703900	0.701800	-0.228063
N8	N	0.969800	0.795700	0.696000	-0.228063
N9	N	0.856700	0.444400	0.228600	-0.228063
N10	N	0.866300	0.531400	0.248900	-0.228063
N11	N	0.100800	0.446000	0.229400	-0.228063
N12	N	0.111600	0.536300	0.251800	-0.228063
N13	N	0.005400	0.183200	0.179900	-0.228063
N14	N	0.989900	0.276300	0.175900	-0.228063
N15	N	0.007500	0.203900	0.798200	-0.228063
N16	N	0.030200	0.295700	0.804000	-0.228063
N17	N	0.856700	0.055600	0.728600	-0.228063
N18	N	0.866300	0.968600	0.748900	-0.228063
N19	N	0.100800	0.054000	0.729400	-0.228063
N20	N	0.111600	0.963700	0.751800	-0.228063
N21	N	0.005400	0.316800	0.679900	-0.228063
N22	N	0.989900	0.223700	0.675900	-0.228063
N23	N	0.007500	0.296100	0.298200	-0.228063
N24	N	0.030200	0.204300	0.304000	-0.228063
N25	N	0.143300	0.555600	0.771400	-0.228063
N26	N	0.133700	0.468600	0.751100	-0.228063
N27	N	0.899200	0.554000	0.770600	-0.228063
N28	N	0.888400	0.463700	0.748200	-0.228063
N29	N	0.994600	0.816800	0.820100	-0.228063
N30	N	0.010100	0.723700	0.824100	-0.228063
N31	N	0.992500	0.796100	0.201800	-0.228063
N32	N	0.969800	0.704300	0.196000	-0.228063
