data_SOVHAM_clean_PM
_symmetry_space_group_name_H-M	'P1'
_cell_length_a	7.101000
_cell_length_b	7.626000
_cell_length_c	11.315600
_cell_angle_alpha	90.000000
_cell_angle_beta	106.602998
_cell_angle_gamma	90.000000
_symmetry_Int_Tables_number 1

loop_
_symmetry_equiv_pos_as_xyz
'x,y,z'

loop_
_atom_site_label
_atom_site_type_symbol
_atom_site_fract_x
_atom_site_fract_y
_atom_site_fract_z
_atom_site_charge
Cd1	Cd	0.000000	0.000000	0.000000	0.924321
Ni1	Ni	0.500000	0.500000	0.000000	-0.037632
H1	H	0.820990	0.884750	0.757410	0.290612
H2	H	0.539120	0.884750	0.832910	0.063278
H3	H	0.489280	0.884750	0.608350	0.081109
H4	H	0.197020	0.884750	0.688000	0.103201
H5	H	0.179010	0.884750	0.242590	0.290612
H6	H	0.460880	0.884750	0.167090	0.063278
H7	H	0.510720	0.884750	0.391650	0.081109
H8	H	0.802980	0.884750	0.312000	0.103201
H9	H	0.179010	0.115250	0.242590	0.290612
H10	H	0.460880	0.115250	0.167090	0.063278
H11	H	0.510720	0.115250	0.391650	0.081109
H12	H	0.802980	0.115250	0.312000	0.103201
H13	H	0.820990	0.115250	0.757410	0.290612
H14	H	0.539120	0.115250	0.832910	0.063278
H15	H	0.489280	0.115250	0.608350	0.081109
H16	H	0.197020	0.115250	0.688000	0.103201
C1	C	0.693100	0.671300	0.038000	0.083908
C2	C	0.306900	0.671300	0.962000	0.083908
C3	C	0.306900	0.328700	0.962000	0.083908
C4	C	0.693100	0.328700	0.038000	0.083908
C5	C	0.575900	0.000000	0.787900	0.083867
C6	C	0.452800	0.000000	0.654800	-0.136805
C7	C	0.233400	0.000000	0.642400	-0.112663
C8	C	0.110500	0.000000	0.506500	-0.106077
C9	C	0.424100	0.000000	0.212100	0.083867
C10	C	0.547200	0.000000	0.345200	-0.136805
C11	C	0.766600	0.000000	0.357600	-0.112663
C12	C	0.889500	0.000000	0.493500	-0.106077
N1	N	0.811800	0.777000	0.057300	-0.392436
N2	N	0.188200	0.777000	0.942700	-0.392436
N3	N	0.188200	0.223000	0.942700	-0.392436
N4	N	0.811800	0.223000	0.057300	-0.392436
N5	N	0.787900	0.000000	0.805100	-0.631010
N6	N	0.212100	0.000000	0.194900	-0.631010
