data_SOXZIP_clean_PM
_symmetry_space_group_name_H-M	'P1'
_cell_length_a	13.187300
_cell_length_b	14.316801
_cell_length_c	16.093300
_cell_angle_alpha	68.115599
_cell_angle_beta	65.813098
_cell_angle_gamma	62.577100
_symmetry_Int_Tables_number 1

loop_
_symmetry_equiv_pos_as_xyz
'x,y,z'

loop_
_atom_site_label
_atom_site_type_symbol
_atom_site_fract_x
_atom_site_fract_y
_atom_site_fract_z
_atom_site_charge
Ba1	Ba	0.448100	0.882700	0.141500	1.670252
Ba2	Ba	0.972300	0.617300	0.358500	1.670252
Ba3	Ba	0.551900	0.117300	0.858500	1.670252
Ba4	Ba	0.027700	0.382700	0.641500	1.670252
Ba5	Ba	0.280300	0.750000	0.750000	1.744533
Ba6	Ba	0.719700	0.250000	0.250000	1.744533
Co1	Co	0.500000	0.500000	0.500000	0.826308
Co2	Co	0.000000	0.000000	0.000000	0.826308
Co3	Co	0.500000	0.000000	0.500000	0.826308
Co4	Co	0.500000	0.500000	0.000000	0.826308
C1	C	0.276100	0.657700	0.488500	-0.102043
C2	C	0.319600	0.681500	0.549300	0.677058
C3	C	0.419700	0.604000	0.341400	-0.099051
C4	C	0.526700	0.629000	0.325200	0.654774
C5	C	0.311300	0.486100	0.461100	-0.192453
C6	C	0.202400	0.532300	0.425700	0.691717
C7	C	0.504100	0.975100	0.681700	-0.102043
C8	C	0.434900	0.913300	0.686900	0.677058
C9	C	0.468500	0.157700	0.579100	-0.099051
C10	C	0.349700	0.179000	0.569400	0.654774
C11	C	0.673500	0.020400	0.556800	-0.010775
C12	C	0.713200	0.055300	0.615500	0.593228
C13	C	0.922300	0.842300	0.011500	-0.102043
C14	C	0.050400	0.818500	0.950700	0.677058
C15	C	0.865100	0.896000	0.158600	-0.099051
C16	C	0.980900	0.871000	0.174800	0.654774
C17	C	0.758500	0.013900	0.038900	-0.192453
C18	C	0.660400	0.967700	0.074300	0.691717
C19	C	0.660900	0.524900	0.818300	-0.102043
C20	C	0.535100	0.586700	0.813100	0.677058
C21	C	0.705300	0.342300	0.920900	-0.099051
C22	C	0.598100	0.321000	0.930600	0.654774
C23	C	0.750700	0.479600	0.943200	-0.010775
C24	C	0.884000	0.444700	0.884500	0.593228
C25	C	0.723900	0.342300	0.511500	-0.102043
C26	C	0.680400	0.318500	0.450700	0.677058
C27	C	0.580300	0.396000	0.658600	-0.099051
C28	C	0.473300	0.371000	0.674800	0.654774
C29	C	0.688700	0.513900	0.538900	-0.192453
C30	C	0.797600	0.467700	0.574300	0.691717
C31	C	0.495900	0.024900	0.318300	-0.102043
C32	C	0.565100	0.086700	0.313100	0.677058
C33	C	0.531500	0.842300	0.420900	-0.099051
C34	C	0.650300	0.821000	0.430600	0.654774
C35	C	0.326500	0.979600	0.443200	-0.010775
C36	C	0.286800	0.944700	0.384500	0.593228
C37	C	0.077700	0.157700	0.988500	-0.102043
C38	C	0.949600	0.181500	0.049300	0.677058
C39	C	0.134900	0.104000	0.841400	-0.099051
C40	C	0.019100	0.129000	0.825200	0.654774
C41	C	0.241500	0.986100	0.961100	-0.192453
C42	C	0.339600	0.032300	0.925700	0.691717
C43	C	0.339100	0.475100	0.181700	-0.102043
C44	C	0.464900	0.413300	0.186900	0.677058
C45	C	0.294700	0.657700	0.079100	-0.099051
C46	C	0.401900	0.679000	0.069400	0.654774
C47	C	0.249300	0.520400	0.056800	-0.010775
C48	C	0.116000	0.555300	0.115500	0.593228
N1	N	0.364800	0.565800	0.445000	0.225262
N2	N	0.544500	0.039700	0.584900	0.241992
N3	N	0.875600	0.934200	0.055000	0.225262
N4	N	0.669100	0.460300	0.915100	0.241992
N5	N	0.635200	0.434200	0.555000	0.225262
N6	N	0.455500	0.960300	0.415100	0.241992
N7	N	0.124400	0.065800	0.945000	0.225262
N8	N	0.330900	0.539700	0.084900	0.241992
O1	O	0.421400	0.616400	0.561200	-0.558095
O2	O	0.257400	0.761600	0.584600	-0.702182
O3	O	0.574500	0.585900	0.392700	-0.557608
O4	O	0.568000	0.684100	0.249100	-0.591300
O5	O	0.133300	0.480900	0.465700	-0.694701
O6	O	0.188900	0.612800	0.358800	-0.619190
O7	O	0.435100	0.906300	0.609300	-0.558095
O8	O	0.382400	0.869200	0.765400	-0.702182
O9	O	0.349800	0.115100	0.530100	-0.557608
O10	O	0.261100	0.255300	0.596100	-0.591300
O11	O	0.637600	0.108800	0.673800	-0.578203
O12	O	0.824800	0.025000	0.597000	-0.468807
O13	O	0.099000	0.883600	0.938800	-0.558095
O14	O	0.103600	0.738400	0.915400	-0.702182
O15	O	0.053100	0.914100	0.107300	-0.557608
O16	O	0.001200	0.815900	0.250900	-0.591300
O17	O	0.579900	0.019100	0.034300	-0.694701
O18	O	0.660500	0.887200	0.141200	-0.619190
O19	O	0.450700	0.593700	0.890700	-0.558095
O20	O	0.517000	0.630800	0.734600	-0.702182
O21	O	0.495000	0.384900	0.969900	-0.557608
O22	O	0.612500	0.244700	0.903900	-0.591300
O23	O	0.920200	0.391200	0.826200	-0.578203
O24	O	0.946800	0.475000	0.903000	-0.468807
O25	O	0.578600	0.383600	0.438800	-0.558095
O26	O	0.742600	0.238400	0.415400	-0.702182
O27	O	0.425500	0.414100	0.607300	-0.557608
O28	O	0.432000	0.315900	0.750900	-0.591300
O29	O	0.866700	0.519100	0.534300	-0.694701
O30	O	0.811100	0.387200	0.641200	-0.619190
O31	O	0.564900	0.093700	0.390700	-0.558095
O32	O	0.617600	0.130800	0.234600	-0.702182
O33	O	0.650200	0.884900	0.469900	-0.557608
O34	O	0.738900	0.744700	0.403900	-0.591300
O35	O	0.362400	0.891200	0.326200	-0.578203
O36	O	0.175200	0.975000	0.403000	-0.468807
O37	O	0.901000	0.116400	0.061200	-0.558095
O38	O	0.896400	0.261600	0.084600	-0.702182
O39	O	0.946900	0.085900	0.892700	-0.557608
O40	O	0.998800	0.184100	0.749100	-0.591300
O41	O	0.420100	0.980900	0.965700	-0.694701
O42	O	0.339500	0.112800	0.858800	-0.619190
O43	O	0.549300	0.406300	0.109300	-0.558095
O44	O	0.483000	0.369200	0.265400	-0.702182
O45	O	0.505000	0.615100	0.030100	-0.557608
O46	O	0.387500	0.755300	0.096100	-0.591300
O47	O	0.079800	0.608800	0.173800	-0.578203
O48	O	0.053200	0.525000	0.097000	-0.468807
