data_SUJNUH_clean_PM
_symmetry_space_group_name_H-M	'P1'
_cell_length_a	6.999400
_cell_length_b	20.539000
_cell_length_c	20.539000
_cell_angle_alpha	90.000000
_cell_angle_beta	90.000000
_cell_angle_gamma	90.000000
_symmetry_Int_Tables_number 1

loop_
_symmetry_equiv_pos_as_xyz
'x,y,z'

loop_
_atom_site_label
_atom_site_type_symbol
_atom_site_fract_x
_atom_site_fract_y
_atom_site_fract_z
_atom_site_charge
Cu1	Cu	0.663740	0.018970	0.023910	0.885776
Cu2	Cu	0.663740	0.481030	0.476090	0.885776
Cu3	Cu	0.163740	0.976090	0.518970	0.885776
Cu4	Cu	0.163740	0.523910	0.981030	0.885776
Cu5	Cu	0.336260	0.981030	0.976090	0.885776
Cu6	Cu	0.336260	0.518970	0.523910	0.885776
Cu7	Cu	0.836260	0.023910	0.481030	0.885776
Cu8	Cu	0.836260	0.476090	0.018970	0.885776
H1	H	0.067200	0.171700	0.028000	0.103966
H2	H	0.975600	0.281900	0.028200	0.103966
H3	H	0.456500	0.386700	0.907000	0.108137
H4	H	0.727200	0.351800	0.854000	0.103469
H5	H	0.825900	0.242300	0.860600	0.103469
H6	H	0.651000	0.168700	0.920900	0.108137
H7	H	0.067200	0.328300	0.472000	0.103966
H8	H	0.975600	0.218100	0.471800	0.103966
H9	H	0.456500	0.113300	0.593000	0.108137
H10	H	0.727200	0.148200	0.646000	0.103469
H11	H	0.825900	0.257700	0.639400	0.103469
H12	H	0.651000	0.331300	0.579100	0.108137
H13	H	0.567200	0.972000	0.671700	0.103966
H14	H	0.475600	0.971800	0.781900	0.103966
H15	H	0.956500	0.093000	0.886700	0.108137
H16	H	0.227200	0.146000	0.851800	0.103469
H17	H	0.325900	0.139400	0.742300	0.103469
H18	H	0.151000	0.079100	0.668700	0.108137
H19	H	0.567200	0.528000	0.828300	0.103966
H20	H	0.475600	0.528200	0.718100	0.103966
H21	H	0.956500	0.407000	0.613300	0.108137
H22	H	0.227200	0.354000	0.648200	0.103469
H23	H	0.325900	0.360600	0.757700	0.103469
H24	H	0.151000	0.420900	0.831300	0.108137
H25	H	0.932800	0.828300	0.972000	0.103966
H26	H	0.024400	0.718100	0.971800	0.103966
H27	H	0.543500	0.613300	0.093000	0.108137
H28	H	0.272800	0.648200	0.146000	0.103469
H29	H	0.174100	0.757700	0.139400	0.103469
H30	H	0.349000	0.831300	0.079100	0.108137
H31	H	0.932800	0.671700	0.528000	0.103966
H32	H	0.024400	0.781900	0.528200	0.103966
H33	H	0.543500	0.886700	0.407000	0.108137
H34	H	0.272800	0.851800	0.354000	0.103469
H35	H	0.174100	0.742300	0.360600	0.103469
H36	H	0.349000	0.668700	0.420900	0.108137
H37	H	0.432800	0.028000	0.328300	0.103966
H38	H	0.524400	0.028200	0.218100	0.103966
H39	H	0.043500	0.907000	0.113300	0.108137
H40	H	0.772800	0.854000	0.148200	0.103469
H41	H	0.674100	0.860600	0.257700	0.103469
H42	H	0.849000	0.920900	0.331300	0.108137
H43	H	0.432800	0.472000	0.171700	0.103966
H44	H	0.524400	0.471800	0.281900	0.103966
H45	H	0.043500	0.593000	0.386700	0.108137
H46	H	0.772800	0.646000	0.351800	0.103469
H47	H	0.674100	0.639400	0.242300	0.103469
H48	H	0.849000	0.579100	0.168700	0.108137
C1	C	0.322400	0.186000	0.984320	-0.118269
C2	C	0.149300	0.203720	0.009760	-0.071882
C3	C	0.093500	0.269660	0.008840	-0.071882
C4	C	0.206100	0.316770	0.980420	-0.118269
C5	C	0.493500	0.342280	0.910210	-0.114680
C6	C	0.654300	0.321690	0.878780	-0.068888
C7	C	0.713700	0.256100	0.882650	-0.068888
C8	C	0.609600	0.212640	0.918090	-0.114680
C9	C	0.439900	0.232020	0.950980	0.056130
C10	C	0.380000	0.298790	0.947670	0.056130
C11	C	0.383100	0.116190	0.991900	0.673795
C12	C	0.134800	0.385710	0.987370	0.673795
C13	C	0.322400	0.314000	0.515680	-0.118269
C14	C	0.149300	0.296280	0.490240	-0.071882
C15	C	0.093500	0.230340	0.491160	-0.071882
C16	C	0.206100	0.183230	0.519580	-0.118269
C17	C	0.493500	0.157720	0.589790	-0.114680
C18	C	0.654300	0.178310	0.621220	-0.068888
C19	C	0.713700	0.243900	0.617350	-0.068888
C20	C	0.609600	0.287360	0.581910	-0.114680
C21	C	0.439900	0.267980	0.549020	0.056130
C22	C	0.380000	0.201210	0.552330	0.056130
C23	C	0.383100	0.383810	0.508100	0.673795
C24	C	0.134800	0.114290	0.512630	0.673795
C25	C	0.822400	0.015680	0.686000	-0.118269
C26	C	0.649300	0.990240	0.703720	-0.071882
C27	C	0.593500	0.991160	0.769660	-0.071882
C28	C	0.706100	0.019580	0.816770	-0.118269
C29	C	0.993500	0.089790	0.842280	-0.114680
C30	C	0.154300	0.121220	0.821690	-0.068888
C31	C	0.213700	0.117350	0.756100	-0.068888
C32	C	0.109600	0.081910	0.712640	-0.114680
C33	C	0.939900	0.049020	0.732020	0.056130
C34	C	0.880000	0.052330	0.798790	0.056130
C35	C	0.883100	0.008100	0.616190	0.673795
C36	C	0.634800	0.012630	0.885710	0.673795
C37	C	0.822400	0.484320	0.814000	-0.118269
C38	C	0.649300	0.509760	0.796280	-0.071882
C39	C	0.593500	0.508840	0.730340	-0.071882
C40	C	0.706100	0.480420	0.683230	-0.118269
C41	C	0.993500	0.410210	0.657720	-0.114680
C42	C	0.154300	0.378780	0.678310	-0.068888
C43	C	0.213700	0.382650	0.743900	-0.068888
C44	C	0.109600	0.418090	0.787360	-0.114680
C45	C	0.939900	0.450980	0.767980	0.056130
C46	C	0.880000	0.447670	0.701210	0.056130
C47	C	0.883100	0.491900	0.883810	0.673795
C48	C	0.634800	0.487370	0.614290	0.673795
C49	C	0.677600	0.814000	0.015680	-0.118269
C50	C	0.850700	0.796280	0.990240	-0.071882
C51	C	0.906500	0.730340	0.991160	-0.071882
C52	C	0.793900	0.683230	0.019580	-0.118269
C53	C	0.506500	0.657720	0.089790	-0.114680
C54	C	0.345700	0.678310	0.121220	-0.068888
C55	C	0.286300	0.743900	0.117350	-0.068888
C56	C	0.390400	0.787360	0.081910	-0.114680
C57	C	0.560100	0.767980	0.049020	0.056130
C58	C	0.620000	0.701210	0.052330	0.056130
C59	C	0.616900	0.883810	0.008100	0.673795
C60	C	0.865200	0.614290	0.012630	0.673795
C61	C	0.677600	0.686000	0.484320	-0.118269
C62	C	0.850700	0.703720	0.509760	-0.071882
C63	C	0.906500	0.769660	0.508840	-0.071882
C64	C	0.793900	0.816770	0.480420	-0.118269
C65	C	0.506500	0.842280	0.410210	-0.114680
C66	C	0.345700	0.821690	0.378780	-0.068888
C67	C	0.286300	0.756100	0.382650	-0.068888
C68	C	0.390400	0.712640	0.418090	-0.114680
C69	C	0.560100	0.732020	0.450980	0.056130
C70	C	0.620000	0.798790	0.447670	0.056130
C71	C	0.616900	0.616190	0.491900	0.673795
C72	C	0.865200	0.885710	0.487370	0.673795
C73	C	0.177600	0.984320	0.314000	-0.118269
C74	C	0.350700	0.009760	0.296280	-0.071882
C75	C	0.406500	0.008840	0.230340	-0.071882
C76	C	0.293900	0.980420	0.183230	-0.118269
C77	C	0.006500	0.910210	0.157720	-0.114680
C78	C	0.845700	0.878780	0.178310	-0.068888
C79	C	0.786300	0.882650	0.243900	-0.068888
C80	C	0.890400	0.918090	0.287360	-0.114680
C81	C	0.060100	0.950980	0.267980	0.056130
C82	C	0.120000	0.947670	0.201210	0.056130
C83	C	0.116900	0.991900	0.383810	0.673795
C84	C	0.365200	0.987370	0.114290	0.673795
C85	C	0.177600	0.515680	0.186000	-0.118269
C86	C	0.350700	0.490240	0.203720	-0.071882
C87	C	0.406500	0.491160	0.269660	-0.071882
C88	C	0.293900	0.519580	0.316770	-0.118269
C89	C	0.006500	0.589790	0.342280	-0.114680
C90	C	0.845700	0.621220	0.321690	-0.068888
C91	C	0.786300	0.617350	0.256100	-0.068888
C92	C	0.890400	0.581910	0.212640	-0.114680
C93	C	0.060100	0.549020	0.232020	0.056130
C94	C	0.120000	0.552330	0.298790	0.056130
C95	C	0.116900	0.508100	0.116190	0.673795
C96	C	0.365200	0.512630	0.385710	0.673795
O1	O	0.548400	0.105900	0.014880	-0.557333
O2	O	0.265500	0.073440	0.975190	-0.557333
O3	O	0.249200	0.432510	0.976180	-0.557333
O4	O	0.965300	0.392590	0.005370	-0.557333
O5	O	0.548400	0.394100	0.485120	-0.557333
O6	O	0.265500	0.426560	0.524810	-0.557333
O7	O	0.249200	0.067490	0.523820	-0.557333
O8	O	0.965300	0.107410	0.494630	-0.557333
O9	O	0.048400	0.985120	0.605900	-0.557333
O10	O	0.765500	0.024810	0.573440	-0.557333
O11	O	0.749200	0.023820	0.932510	-0.557333
O12	O	0.465300	0.994630	0.892590	-0.557333
O13	O	0.048400	0.514880	0.894100	-0.557333
O14	O	0.765500	0.475190	0.926560	-0.557333
O15	O	0.749200	0.476180	0.567490	-0.557333
O16	O	0.465300	0.505370	0.607410	-0.557333
O17	O	0.451600	0.894100	0.985120	-0.557333
O18	O	0.734500	0.926560	0.024810	-0.557333
O19	O	0.750800	0.567490	0.023820	-0.557333
O20	O	0.034700	0.607410	0.994630	-0.557333
O21	O	0.451600	0.605900	0.514880	-0.557333
O22	O	0.734500	0.573440	0.475190	-0.557333
O23	O	0.750800	0.932510	0.476180	-0.557333
O24	O	0.034700	0.892590	0.505370	-0.557333
O25	O	0.951600	0.014880	0.394100	-0.557333
O26	O	0.234500	0.975190	0.426560	-0.557333
O27	O	0.250800	0.976180	0.067490	-0.557333
O28	O	0.534700	0.005370	0.107410	-0.557333
O29	O	0.951600	0.485120	0.105900	-0.557333
O30	O	0.234500	0.524810	0.073440	-0.557333
O31	O	0.250800	0.523820	0.432510	-0.557333
O32	O	0.534700	0.494630	0.392590	-0.557333
