data_TACPAP_clean_PM
_symmetry_space_group_name_H-M	'P1'
_cell_length_a	5.826500
_cell_length_b	19.051300
_cell_length_c	19.051300
_cell_angle_alpha	90.000000
_cell_angle_beta	90.000000
_cell_angle_gamma	90.000000
_symmetry_Int_Tables_number 1

loop_
_symmetry_equiv_pos_as_xyz
'x,y,z'

loop_
_atom_site_label
_atom_site_type_symbol
_atom_site_fract_x
_atom_site_fract_y
_atom_site_fract_z
_atom_site_charge
Zn1	Zn	0.250000	0.727610	0.272390	1.144484
Zn2	Zn	0.750000	0.272390	0.727610	1.144484
Zn3	Zn	0.000000	0.227610	0.227610	1.144484
Zn4	Zn	0.500000	0.772390	0.772390	1.144484
Zn5	Zn	0.750000	0.775650	0.224350	1.144484
Zn6	Zn	0.250000	0.224350	0.775650	1.144484
Zn7	Zn	0.500000	0.275650	0.275650	1.144484
Zn8	Zn	0.000000	0.724350	0.724350	1.144484
H1	H	0.406000	0.624000	0.239000	0.392057
H2	H	0.978000	0.493000	0.303500	0.081392
H3	H	0.405200	0.460000	0.216400	0.104625
H4	H	0.686000	0.390000	0.250000	0.392057
H5	H	0.174200	0.549600	0.206900	0.104625
H6	H	0.454200	0.503300	0.329400	0.081392
H7	H	0.906000	0.376000	0.761000	0.392057
H8	H	0.478000	0.507000	0.696500	0.081392
H9	H	0.905200	0.540000	0.783600	0.104625
H10	H	0.186000	0.610000	0.750000	0.392057
H11	H	0.674200	0.450400	0.793100	0.104625
H12	H	0.954200	0.496700	0.670600	0.081392
H13	H	0.156000	0.261000	0.124000	0.392057
H14	H	0.728000	0.196500	0.993000	0.081392
H15	H	0.155200	0.283600	0.960000	0.104625
H16	H	0.436000	0.250000	0.890000	0.392057
H17	H	0.924200	0.293100	0.049600	0.104625
H18	H	0.204200	0.170600	0.003300	0.081392
H19	H	0.656000	0.739000	0.876000	0.392057
H20	H	0.228000	0.803500	0.007000	0.081392
H21	H	0.655200	0.716400	0.040000	0.104625
H22	H	0.936000	0.750000	0.110000	0.392057
H23	H	0.424200	0.706900	0.950400	0.104625
H24	H	0.704200	0.829400	0.996700	0.081392
H25	H	0.344000	0.876000	0.739000	0.392057
H26	H	0.772000	0.007000	0.803500	0.081392
H27	H	0.344800	0.040000	0.716400	0.104625
H28	H	0.064000	0.110000	0.750000	0.392057
H29	H	0.575800	0.950400	0.706900	0.104625
H30	H	0.295800	0.996700	0.829400	0.081392
H31	H	0.844000	0.124000	0.261000	0.392057
H32	H	0.272000	0.993000	0.196500	0.081392
H33	H	0.844800	0.960000	0.283600	0.104625
H34	H	0.564000	0.890000	0.250000	0.392057
H35	H	0.075800	0.049600	0.293100	0.104625
H36	H	0.795800	0.003300	0.170600	0.081392
H37	H	0.594000	0.239000	0.624000	0.392057
H38	H	0.022000	0.303500	0.493000	0.081392
H39	H	0.594800	0.216400	0.460000	0.104625
H40	H	0.314000	0.250000	0.390000	0.392057
H41	H	0.825800	0.206900	0.549600	0.104625
H42	H	0.545800	0.329400	0.503300	0.081392
H43	H	0.094000	0.761000	0.376000	0.392057
H44	H	0.522000	0.696500	0.507000	0.081392
H45	H	0.094800	0.783600	0.540000	0.104625
H46	H	0.814000	0.750000	0.610000	0.392057
H47	H	0.325800	0.793100	0.450400	0.104625
H48	H	0.045800	0.670600	0.496700	0.081392
C1	C	0.918500	0.617500	0.241900	0.616424
C2	C	0.113600	0.522100	0.312500	0.113792
C3	C	0.369700	0.429400	0.256300	0.063144
C4	C	0.169200	0.382500	0.237600	0.616424
C5	C	0.140200	0.575000	0.250400	0.063144
C6	C	0.319200	0.474000	0.320200	0.113792
C7	C	0.418500	0.382500	0.758100	0.616424
C8	C	0.613600	0.477900	0.687500	0.113792
C9	C	0.869700	0.570600	0.743700	0.063144
C10	C	0.669200	0.617500	0.762400	0.616424
C11	C	0.640200	0.425000	0.749600	0.063144
C12	C	0.819200	0.526000	0.679800	0.113792
C13	C	0.668500	0.258100	0.117500	0.616424
C14	C	0.863600	0.187500	0.022100	0.113792
C15	C	0.119700	0.243700	0.929400	0.063144
C16	C	0.919200	0.262400	0.882500	0.616424
C17	C	0.890200	0.249600	0.075000	0.063144
C18	C	0.069200	0.179800	0.974000	0.113792
C19	C	0.168500	0.741900	0.882500	0.616424
C20	C	0.363600	0.812500	0.977900	0.113792
C21	C	0.619700	0.756300	0.070600	0.063144
C22	C	0.419200	0.737600	0.117500	0.616424
C23	C	0.390200	0.750400	0.925000	0.063144
C24	C	0.569200	0.820200	0.026000	0.113792
C25	C	0.831500	0.882500	0.741900	0.616424
C26	C	0.636400	0.977900	0.812500	0.113792
C27	C	0.380300	0.070600	0.756300	0.063144
C28	C	0.580800	0.117500	0.737600	0.616424
C29	C	0.609800	0.925000	0.750400	0.063144
C30	C	0.430800	0.026000	0.820200	0.113792
C31	C	0.331500	0.117500	0.258100	0.616424
C32	C	0.136400	0.022100	0.187500	0.113792
C33	C	0.880300	0.929400	0.243700	0.063144
C34	C	0.080800	0.882500	0.262400	0.616424
C35	C	0.109800	0.075000	0.249600	0.063144
C36	C	0.930800	0.974000	0.179800	0.113792
C37	C	0.081500	0.241900	0.617500	0.616424
C38	C	0.886400	0.312500	0.522100	0.113792
C39	C	0.630300	0.256300	0.429400	0.063144
C40	C	0.830800	0.237600	0.382500	0.616424
C41	C	0.859800	0.250400	0.575000	0.063144
C42	C	0.680800	0.320200	0.474000	0.113792
C43	C	0.581500	0.758100	0.382500	0.616424
C44	C	0.386400	0.687500	0.477900	0.113792
C45	C	0.130300	0.743700	0.570600	0.063144
C46	C	0.330800	0.762400	0.617500	0.616424
C47	C	0.359800	0.749600	0.425000	0.063144
C48	C	0.180800	0.679800	0.526000	0.113792
O1	O	0.939300	0.683800	0.243000	-0.674256
O2	O	0.738600	0.584600	0.231800	-0.520176
O3	O	0.324400	0.622100	0.266800	-0.534263
O4	O	0.075400	0.560100	0.374600	-0.214979
O5	O	0.287700	0.429200	0.379100	-0.214979
O6	O	0.566800	0.385200	0.271500	-0.534263
O7	O	0.194200	0.315800	0.246900	-0.674256
O8	O	0.991100	0.408600	0.213600	-0.520176
O9	O	0.439300	0.316200	0.757000	-0.674256
O10	O	0.238600	0.415400	0.768200	-0.520176
O11	O	0.824400	0.377900	0.733200	-0.534263
O12	O	0.575400	0.439900	0.625400	-0.214979
O13	O	0.787700	0.570800	0.620900	-0.214979
O14	O	0.066800	0.614800	0.728500	-0.534263
O15	O	0.694200	0.684200	0.753100	-0.674256
O16	O	0.491100	0.591400	0.786400	-0.520176
O17	O	0.689300	0.257000	0.183800	-0.674256
O18	O	0.488600	0.268200	0.084600	-0.520176
O19	O	0.074400	0.233200	0.122100	-0.534263
O20	O	0.825400	0.125400	0.060100	-0.214979
O21	O	0.037700	0.120900	0.929200	-0.214979
O22	O	0.316800	0.228500	0.885200	-0.534263
O23	O	0.944200	0.253100	0.815800	-0.674256
O24	O	0.741100	0.286400	0.908600	-0.520176
O25	O	0.189300	0.743000	0.816200	-0.674256
O26	O	0.988600	0.731800	0.915400	-0.520176
O27	O	0.574400	0.766800	0.877900	-0.534263
O28	O	0.325400	0.874600	0.939900	-0.214979
O29	O	0.537700	0.879100	0.070800	-0.214979
O30	O	0.816800	0.771500	0.114800	-0.534263
O31	O	0.444200	0.746900	0.184200	-0.674256
O32	O	0.241100	0.713600	0.091400	-0.520176
O33	O	0.810700	0.816200	0.743000	-0.674256
O34	O	0.011400	0.915400	0.731800	-0.520176
O35	O	0.425600	0.877900	0.766800	-0.534263
O36	O	0.674600	0.939900	0.874600	-0.214979
O37	O	0.462300	0.070800	0.879100	-0.214979
O38	O	0.183200	0.114800	0.771500	-0.534263
O39	O	0.555800	0.184200	0.746900	-0.674256
O40	O	0.758900	0.091400	0.713600	-0.520176
O41	O	0.310700	0.183800	0.257000	-0.674256
O42	O	0.511400	0.084600	0.268200	-0.520176
O43	O	0.925600	0.122100	0.233200	-0.534263
O44	O	0.174600	0.060100	0.125400	-0.214979
O45	O	0.962300	0.929200	0.120900	-0.214979
O46	O	0.683200	0.885200	0.228500	-0.534263
O47	O	0.055800	0.815800	0.253100	-0.674256
O48	O	0.258900	0.908600	0.286400	-0.520176
O49	O	0.060700	0.243000	0.683800	-0.674256
O50	O	0.261400	0.231800	0.584600	-0.520176
O51	O	0.675600	0.266800	0.622100	-0.534263
O52	O	0.924600	0.374600	0.560100	-0.214979
O53	O	0.712300	0.379100	0.429200	-0.214979
O54	O	0.433200	0.271500	0.385200	-0.534263
O55	O	0.805800	0.246900	0.315800	-0.674256
O56	O	0.008900	0.213600	0.408600	-0.520176
O57	O	0.560700	0.757000	0.316200	-0.674256
O58	O	0.761400	0.768200	0.415400	-0.520176
O59	O	0.175600	0.733200	0.377900	-0.534263
O60	O	0.424600	0.625400	0.439900	-0.214979
O61	O	0.212300	0.620900	0.570800	-0.214979
O62	O	0.933200	0.728500	0.614800	-0.534263
O63	O	0.305800	0.753100	0.684200	-0.674256
O64	O	0.508900	0.786400	0.591400	-0.520176
