data_TAPKAY_clean_PM
_symmetry_space_group_name_H-M	'P1'
_cell_length_a	10.741000
_cell_length_b	11.109000
_cell_length_c	11.933000
_cell_angle_alpha	77.678001
_cell_angle_beta	84.650002
_cell_angle_gamma	75.989999
_symmetry_Int_Tables_number 1

loop_
_symmetry_equiv_pos_as_xyz
'x,y,z'

loop_
_atom_site_label
_atom_site_type_symbol
_atom_site_fract_x
_atom_site_fract_y
_atom_site_fract_z
_atom_site_charge
Cu1	Cu	0.546150	0.006920	0.802340	1.092975
Cu2	Cu	0.478070	0.756650	0.934130	1.076088
Cu3	Cu	0.490410	0.582510	0.668540	1.016218
Cu4	Cu	0.030200	0.215680	0.065980	0.796986
Cu5	Cu	0.453850	0.993080	0.197660	1.092975
Cu6	Cu	0.521930	0.243350	0.065870	1.076088
Cu7	Cu	0.509590	0.417490	0.331460	1.016218
Cu8	Cu	0.969800	0.784320	0.934020	0.796986
P1	P	0.424000	0.870200	0.663900	1.365671
P2	P	0.246900	0.725100	0.808500	1.441096
P3	P	0.487600	0.303000	0.803800	1.441528
P4	P	0.312800	0.151800	0.943900	1.444061
P5	P	0.576000	0.129800	0.336100	1.365671
P6	P	0.753100	0.274900	0.191500	1.441096
P7	P	0.512400	0.697000	0.196200	1.441528
P8	P	0.687200	0.848200	0.056100	1.444061
H1	H	0.132500	0.970300	0.792700	0.371790
H2	H	0.197700	0.380700	0.923700	0.371790
H3	H	0.086400	0.896100	0.621000	0.114669
H4	H	0.200600	0.799600	0.574900	0.114669
H5	H	0.316200	0.867200	0.404500	0.099839
H6	H	0.253100	0.216900	0.240400	0.085361
H7	H	0.115700	0.281300	0.382100	0.132216
H8	H	0.078900	0.132900	0.547500	0.107608
H9	H	0.163800	0.267100	0.748900	0.114669
H10	H	0.295500	0.193800	0.703100	0.114669
H11	H	0.082500	0.499600	0.655300	0.107608
H12	H	0.088000	0.645000	0.485000	0.132216
H13	H	0.259400	0.616900	0.355700	0.086838
H14	H	0.408400	0.288700	0.545200	0.101271
H15	H	0.867500	0.029700	0.207300	0.371790
H16	H	0.802300	0.619300	0.076300	0.371790
H17	H	0.913600	0.103900	0.379000	0.114669
H18	H	0.799400	0.200400	0.425100	0.114669
H19	H	0.683800	0.132800	0.595500	0.099839
H20	H	0.746900	0.783100	0.759600	0.085361
H21	H	0.884300	0.718700	0.617900	0.132216
H22	H	0.921100	0.867100	0.452500	0.107608
H23	H	0.836200	0.732900	0.251100	0.114669
H24	H	0.704500	0.806200	0.296900	0.114669
H25	H	0.917500	0.500400	0.344700	0.107608
H26	H	0.912000	0.355000	0.515000	0.132216
H27	H	0.740600	0.383100	0.644300	0.086838
H28	H	0.591600	0.711300	0.454800	0.101271
C1	C	0.254800	0.873700	0.703700	-0.299092
C2	C	0.176900	0.881300	0.597600	-0.089095
C3	C	0.194500	0.982200	0.493000	0.012256
C4	C	0.275100	0.951800	0.401300	0.132672
C5	C	0.238000	0.156800	0.304300	0.186480
C6	C	0.156500	0.196200	0.388800	-0.144207
C7	C	0.133700	0.107500	0.487500	-0.045950
C8	C	0.318200	0.291100	0.827400	-0.310518
C9	C	0.251100	0.273300	0.724400	-0.089269
C10	C	0.247000	0.377700	0.619600	0.012420
C11	C	0.149700	0.485800	0.601000	-0.045950
C12	C	0.154400	0.573200	0.500100	-0.144326
C13	C	0.256200	0.555400	0.421700	0.188077
C14	C	0.344600	0.363000	0.534700	0.139515
C15	C	0.745200	0.126300	0.296300	-0.299092
C16	C	0.823100	0.118700	0.402400	-0.089095
C17	C	0.805500	0.017800	0.507000	0.012256
C18	C	0.724900	0.048200	0.598700	0.132672
C19	C	0.762000	0.843200	0.695700	0.186480
C20	C	0.843500	0.803800	0.611200	-0.144207
C21	C	0.866300	0.892500	0.512500	-0.045950
C22	C	0.681800	0.708900	0.172600	-0.310518
C23	C	0.748900	0.726700	0.275600	-0.089269
C24	C	0.753000	0.622300	0.380400	0.012420
C25	C	0.850300	0.514200	0.399000	-0.045950
C26	C	0.845600	0.426800	0.499900	-0.144326
C27	C	0.743800	0.444600	0.578300	0.188077
C28	C	0.655400	0.637000	0.465300	0.139515
N1	N	0.298200	0.036200	0.307500	-0.308762
N2	N	0.351900	0.449300	0.439200	-0.306542
N3	N	0.701800	0.963800	0.692500	-0.308762
N4	N	0.648100	0.550700	0.560800	-0.306542
O1	O	0.489100	0.854600	0.777700	-0.863271
O2	O	0.472700	0.760100	0.605900	-0.789408
O3	O	0.437000	0.997000	0.590700	-0.706215
O4	O	0.319400	0.615400	0.752500	-0.790912
O5	O	0.306500	0.734000	0.916800	-0.798888
O6	O	0.107000	0.721100	0.829700	-0.828192
O7	O	0.198700	0.981400	0.756200	-0.497103
O8	O	0.499200	0.405000	0.700200	-0.787923
O9	O	0.568800	0.174500	0.785900	-0.799530
O10	O	0.522100	0.337900	0.912300	-0.796209
O11	O	0.380000	0.037300	0.891900	-0.794902
O12	O	0.173200	0.149200	0.973300	-0.810491
O13	O	0.380100	0.165100	0.046300	-0.857199
O14	O	0.244900	0.402300	0.868900	-0.497306
O15	O	0.510900	0.145400	0.222300	-0.863271
O16	O	0.527300	0.239900	0.394100	-0.789408
O17	O	0.563000	0.003000	0.409300	-0.706215
O18	O	0.680600	0.384600	0.247500	-0.790912
O19	O	0.693500	0.266000	0.083200	-0.798888
O20	O	0.893000	0.278900	0.170300	-0.828192
O21	O	0.801300	0.018600	0.243800	-0.497103
O22	O	0.500800	0.595000	0.299800	-0.787923
O23	O	0.431200	0.825500	0.214100	-0.799530
O24	O	0.477900	0.662100	0.087700	-0.796209
O25	O	0.620000	0.962700	0.108100	-0.794902
O26	O	0.826800	0.850800	0.026700	-0.810491
O27	O	0.619900	0.834900	0.953700	-0.857199
O28	O	0.755100	0.597700	0.131100	-0.497306
