data_TARVOX_clean_PM
_symmetry_space_group_name_H-M	'P1'
_cell_length_a	6.940000
_cell_length_b	12.698100
_cell_length_c	12.698100
_cell_angle_alpha	82.567099
_cell_angle_beta	83.697700
_cell_angle_gamma	83.697699
_symmetry_Int_Tables_number 1

loop_
_symmetry_equiv_pos_as_xyz
'x,y,z'

loop_
_atom_site_label
_atom_site_type_symbol
_atom_site_fract_x
_atom_site_fract_y
_atom_site_fract_z
_atom_site_charge
Co1	Co	0.908700	0.320460	0.946680	1.068929
Co2	Co	0.591300	0.053320	0.679540	1.068929
Co3	Co	0.091300	0.679540	0.053320	1.068929
Co4	Co	0.408700	0.946680	0.320460	1.068929
H1	H	0.430100	0.423000	0.451600	0.314044
H2	H	0.069900	0.548400	0.577000	0.314044
H3	H	0.569900	0.577000	0.548400	0.314044
H4	H	0.930100	0.451600	0.423000	0.314044
C1	C	0.443800	0.536300	0.334300	0.686705
C2	C	0.364100	0.359700	0.330900	0.686705
C3	C	0.331200	0.486300	0.188100	0.722130
C4	C	0.518400	0.701600	0.350200	0.655488
C5	C	0.314100	0.184000	0.346800	0.655488
C6	C	0.201700	0.447800	0.040000	0.678947
C7	C	0.056200	0.665700	0.463700	0.686705
C8	C	0.135900	0.669100	0.640300	0.686705
C9	C	0.168800	0.811900	0.513700	0.722130
C10	C	0.981600	0.649800	0.298400	0.655488
C11	C	0.185900	0.653200	0.816000	0.655488
C12	C	0.298300	0.960000	0.552200	0.678947
C13	C	0.556200	0.463700	0.665700	0.686705
C14	C	0.635900	0.640300	0.669100	0.686705
C15	C	0.668800	0.513700	0.811900	0.722130
C16	C	0.481600	0.298400	0.649800	0.655488
C17	C	0.685900	0.816000	0.653200	0.655488
C18	C	0.798300	0.552200	0.960000	0.678947
C19	C	0.943800	0.334300	0.536300	0.686705
C20	C	0.864100	0.330900	0.359700	0.686705
C21	C	0.831200	0.188100	0.486300	0.722130
C22	C	0.018400	0.350200	0.701600	0.655488
C23	C	0.814100	0.346800	0.184000	0.655488
C24	C	0.701700	0.040000	0.447800	0.678947
N1	N	0.415500	0.437100	0.384700	-0.534212
N2	N	0.324400	0.382500	0.229500	-0.664494
N3	N	0.398100	0.562500	0.234100	-0.664494
N4	N	0.509300	0.601800	0.392000	-0.588576
N5	N	0.528500	0.790500	0.321500	-0.620557
N6	N	0.350800	0.266300	0.390500	-0.588576
N7	N	0.285400	0.103800	0.318600	-0.620557
N8	N	0.259400	0.520100	0.092300	-0.589488
N9	N	0.144900	0.393000	0.987800	-0.597481
N10	N	0.084500	0.615300	0.562900	-0.534212
N11	N	0.175600	0.770500	0.617500	-0.664494
N12	N	0.101900	0.765900	0.437500	-0.664494
N13	N	0.990700	0.608000	0.398200	-0.588576
N14	N	0.971500	0.678500	0.209500	-0.620557
N15	N	0.149200	0.609500	0.733700	-0.588576
N16	N	0.214600	0.681400	0.896200	-0.620557
N17	N	0.240600	0.907700	0.479900	-0.589488
N18	N	0.355100	0.012200	0.607000	-0.597481
N19	N	0.584500	0.562900	0.615300	-0.534212
N20	N	0.675600	0.617500	0.770500	-0.664494
N21	N	0.601900	0.437500	0.765900	-0.664494
N22	N	0.490700	0.398200	0.608000	-0.588576
N23	N	0.471500	0.209500	0.678500	-0.620557
N24	N	0.649200	0.733700	0.609500	-0.588576
N25	N	0.714600	0.896200	0.681400	-0.620557
N26	N	0.740600	0.479900	0.907700	-0.589488
N27	N	0.855100	0.607000	0.012200	-0.597481
N28	N	0.915500	0.384700	0.437100	-0.534212
N29	N	0.824400	0.229500	0.382500	-0.664494
N30	N	0.898100	0.234100	0.562500	-0.664494
N31	N	0.009300	0.392000	0.601800	-0.588576
N32	N	0.028500	0.321500	0.790500	-0.620557
N33	N	0.850800	0.390500	0.266300	-0.588576
N34	N	0.785400	0.318600	0.103800	-0.620557
N35	N	0.759400	0.092300	0.520100	-0.589488
N36	N	0.644900	0.987800	0.393000	-0.597481
