data_TARWAK_clean_PM
_symmetry_space_group_name_H-M	'P1'
_cell_length_a	6.942000
_cell_length_b	12.584000
_cell_length_c	12.584000
_cell_angle_alpha	84.647200
_cell_angle_beta	83.284803
_cell_angle_gamma	83.284801
_symmetry_Int_Tables_number 1

loop_
_symmetry_equiv_pos_as_xyz
'x,y,z'

loop_
_atom_site_label
_atom_site_type_symbol
_atom_site_fract_x
_atom_site_fract_y
_atom_site_fract_z
_atom_site_charge
Cu1	Cu	0.933010	0.313350	0.942170	0.842998
Cu2	Cu	0.433010	0.942170	0.313350	0.842998
Cu3	Cu	0.566990	0.057830	0.686650	0.842998
Cu4	Cu	0.066990	0.686650	0.057830	0.842998
H1	H	0.435700	0.422640	0.450640	0.319816
H2	H	0.935700	0.450640	0.422640	0.319816
H3	H	0.064300	0.549360	0.577360	0.319816
H4	H	0.564300	0.577360	0.549360	0.319816
C1	C	0.447700	0.532500	0.332100	0.698325
C2	C	0.376600	0.353800	0.328000	0.698325
C3	C	0.350100	0.474000	0.182800	0.715742
C4	C	0.517000	0.700600	0.350200	0.656732
C5	C	0.338000	0.175100	0.344100	0.656732
C6	C	0.221000	0.436100	0.033100	0.659216
C7	C	0.947700	0.332100	0.532500	0.698325
C8	C	0.876600	0.328000	0.353800	0.698325
C9	C	0.850100	0.182800	0.474000	0.715742
C10	C	0.017000	0.350200	0.700600	0.656732
C11	C	0.838000	0.344100	0.175100	0.656732
C12	C	0.721000	0.033100	0.436100	0.659216
C13	C	0.052300	0.667900	0.467500	0.698325
C14	C	0.123400	0.672000	0.646200	0.698325
C15	C	0.149900	0.817200	0.526000	0.715742
C16	C	0.983000	0.649800	0.299400	0.656732
C17	C	0.162000	0.655900	0.824900	0.656732
C18	C	0.279000	0.966900	0.563900	0.659216
C19	C	0.552300	0.467500	0.667900	0.698325
C20	C	0.623400	0.646200	0.672000	0.698325
C21	C	0.649900	0.526000	0.817200	0.715742
C22	C	0.483000	0.299400	0.649800	0.656732
C23	C	0.662000	0.824900	0.655900	0.656732
C24	C	0.779000	0.563900	0.966900	0.659216
N1	N	0.422600	0.434260	0.383260	-0.519797
N2	N	0.344000	0.371600	0.225600	-0.632049
N3	N	0.409600	0.555000	0.231400	-0.632049
N4	N	0.507800	0.602100	0.392100	-0.575792
N5	N	0.529300	0.789900	0.322100	-0.577171
N6	N	0.362300	0.261100	0.387900	-0.575792
N7	N	0.317000	0.092900	0.315100	-0.577171
N8	N	0.291200	0.505200	0.085400	-0.580895
N9	N	0.152800	0.385300	0.978700	-0.577171
N10	N	0.922600	0.383260	0.434260	-0.519797
N11	N	0.844000	0.225600	0.371600	-0.632049
N12	N	0.909600	0.231400	0.555000	-0.632049
N13	N	0.007800	0.392100	0.602100	-0.575792
N14	N	0.029300	0.322100	0.789900	-0.577171
N15	N	0.862300	0.387900	0.261100	-0.575792
N16	N	0.817000	0.315100	0.092900	-0.577171
N17	N	0.791200	0.085400	0.505200	-0.580895
N18	N	0.652800	0.978700	0.385300	-0.577171
N19	N	0.077400	0.616740	0.565740	-0.519797
N20	N	0.156000	0.774400	0.628400	-0.632049
N21	N	0.090400	0.768600	0.445000	-0.632049
N22	N	0.992200	0.607900	0.397900	-0.575792
N23	N	0.970700	0.677900	0.210100	-0.577171
N24	N	0.137700	0.612100	0.738900	-0.575792
N25	N	0.183000	0.684900	0.907100	-0.577171
N26	N	0.208800	0.914600	0.494800	-0.580895
N27	N	0.347200	0.021300	0.614700	-0.577171
N28	N	0.577400	0.565740	0.616740	-0.519797
N29	N	0.656000	0.628400	0.774400	-0.632049
N30	N	0.590400	0.445000	0.768600	-0.632049
N31	N	0.492200	0.397900	0.607900	-0.575792
N32	N	0.470700	0.210100	0.677900	-0.577171
N33	N	0.637700	0.738900	0.612100	-0.575792
N34	N	0.683000	0.907100	0.684900	-0.577171
N35	N	0.708800	0.494800	0.914600	-0.580895
N36	N	0.847200	0.614700	0.021300	-0.577171
