data_TEBCEK_clean_PM
_symmetry_space_group_name_H-M	'P1'
_cell_length_a	9.141000
_cell_length_b	9.667000
_cell_length_c	13.855000
_cell_angle_alpha	100.830001
_cell_angle_beta	90.810003
_cell_angle_gamma	100.940000
_symmetry_Int_Tables_number 1

loop_
_symmetry_equiv_pos_as_xyz
'x,y,z'

loop_
_atom_site_label
_atom_site_type_symbol
_atom_site_fract_x
_atom_site_fract_y
_atom_site_fract_z
_atom_site_charge
Co1	Co	0.849450	0.039440	0.267530	0.990827
Co2	Co	0.150550	0.960560	0.732470	0.990827
Co3	Co	0.000000	0.000000	0.500000	0.956653
H1	H	0.459600	0.202700	0.197000	0.137712
H2	H	0.589400	0.316200	0.168000	0.137712
H3	H	0.163100	0.066100	0.151600	0.116079
H4	H	0.200100	0.899400	0.001500	0.133675
H5	H	0.799100	0.769500	0.096300	0.102326
H6	H	0.736200	0.656900	0.931000	0.119388
H7	H	0.682700	0.443600	0.815900	0.119388
H8	H	0.118300	0.428600	0.813300	0.119388
H9	H	0.171200	0.639600	0.930500	0.119388
H10	H	0.651600	0.178800	0.766100	0.133675
H11	H	0.683300	0.986400	0.631100	0.108390
H12	H	0.041600	0.286300	0.653300	0.102517
H13	H	0.674700	0.780600	0.486000	0.142219
H14	H	0.537600	0.842400	0.457700	0.142219
H15	H	0.687100	0.548800	0.331400	0.119202
H16	H	0.311600	0.259300	0.318400	0.119202
H17	H	0.326600	0.665000	0.451000	0.119202
H18	H	0.126100	0.463700	0.483800	0.143164
H19	H	0.074800	0.470500	0.376800	0.143164
H20	H	0.540400	0.797300	0.803000	0.137712
H21	H	0.410600	0.683800	0.832000	0.137712
H22	H	0.836900	0.933900	0.848400	0.116079
H23	H	0.799900	0.100600	0.998500	0.133675
H24	H	0.200900	0.230500	0.903700	0.102326
H25	H	0.263800	0.343100	0.069000	0.119388
H26	H	0.317300	0.556400	0.184100	0.119388
H27	H	0.881700	0.571400	0.186700	0.119388
H28	H	0.828800	0.360400	0.069500	0.119388
H29	H	0.348400	0.821200	0.233900	0.133675
H30	H	0.316700	0.013600	0.368900	0.108390
H31	H	0.958400	0.713700	0.346700	0.102517
H32	H	0.325300	0.219400	0.514000	0.142219
H33	H	0.462400	0.157600	0.542300	0.142219
H34	H	0.312900	0.451200	0.668600	0.119202
H35	H	0.688400	0.740700	0.681600	0.119202
H36	H	0.673400	0.335000	0.549000	0.119202
H37	H	0.873900	0.536300	0.516200	0.143164
H38	H	0.925200	0.529500	0.623200	0.143164
C1	C	0.547800	0.272900	0.221000	-0.369428
C2	C	0.094400	0.985000	0.121600	0.058412
C3	C	0.115800	0.893500	0.038600	-0.131833
C4	C	0.894000	0.822700	0.091900	0.149176
C5	C	0.957300	0.665500	0.943000	0.111838
C6	C	0.812400	0.609700	0.908300	-0.120846
C7	C	0.780600	0.482600	0.839200	-0.120846
C8	C	0.894700	0.414400	0.805100	0.111838
C9	C	0.041600	0.473500	0.838000	-0.120846
C10	C	0.073300	0.599600	0.907700	-0.120846
C11	C	0.733800	0.177100	0.727400	-0.137500
C12	C	0.752100	0.071300	0.652600	0.053715
C13	C	0.948600	0.234900	0.664300	0.126343
C14	C	0.697400	0.853900	0.358600	0.719082
C15	C	0.607500	0.782500	0.431700	-0.377700
C16	C	0.520900	0.632600	0.395900	0.137751
C17	C	0.587200	0.526400	0.345700	-0.228367
C18	C	0.510400	0.388600	0.316100	0.134668
C19	C	0.363700	0.353300	0.338000	-0.228367
C20	C	0.293600	0.455900	0.388600	0.138720
C21	C	0.373700	0.594900	0.416800	-0.228367
C22	C	0.132700	0.423200	0.414800	-0.384998
C23	C	0.064000	0.265300	0.396800	0.744885
C24	C	0.660300	0.202000	0.262900	0.719168
C25	C	0.452200	0.727100	0.779000	-0.369428
C26	C	0.905600	0.015000	0.878400	0.058412
C27	C	0.884200	0.106500	0.961400	-0.131833
C28	C	0.106000	0.177300	0.908100	0.149176
C29	C	0.042700	0.334500	0.057000	0.111838
C30	C	0.187600	0.390300	0.091700	-0.120846
C31	C	0.219400	0.517400	0.160800	-0.120846
C32	C	0.105300	0.585600	0.194900	0.111838
C33	C	0.958400	0.526500	0.162000	-0.120846
C34	C	0.926700	0.400400	0.092300	-0.120846
C35	C	0.266200	0.822900	0.272600	-0.137500
C36	C	0.247900	0.928700	0.347400	0.053715
C37	C	0.051400	0.765100	0.335700	0.126343
C38	C	0.302600	0.146100	0.641400	0.719082
C39	C	0.392500	0.217500	0.568300	-0.377700
C40	C	0.479100	0.367400	0.604100	0.137751
C41	C	0.412800	0.473600	0.654300	-0.228367
C42	C	0.489600	0.611400	0.683900	0.134668
C43	C	0.636300	0.646700	0.662000	-0.228367
C44	C	0.706400	0.544100	0.611400	0.138720
C45	C	0.626300	0.405100	0.583200	-0.228367
C46	C	0.867300	0.576800	0.585200	-0.384998
C47	C	0.936000	0.734700	0.603200	0.744885
C48	C	0.339700	0.798000	0.737100	0.719168
N1	N	0.955100	0.939800	0.154800	-0.416220
N2	N	0.987400	0.789800	0.020100	0.042970
N3	N	0.860200	0.281600	0.735300	0.043177
N4	N	0.887900	0.108100	0.612700	-0.381219
N5	N	0.044900	0.060200	0.845200	-0.416220
N6	N	0.012600	0.210200	0.979900	0.042970
N7	N	0.139800	0.718400	0.264700	0.043177
N8	N	0.112100	0.891900	0.387300	-0.381219
O1	O	0.806000	0.959900	0.392000	-0.693748
O2	O	0.669200	0.819000	0.269200	-0.613836
O3	O	0.074600	0.199400	0.465000	-0.593255
O4	O	0.002400	0.211500	0.313900	-0.616471
O5	O	0.689000	0.092000	0.181900	-0.631868
O6	O	0.700300	0.225300	0.345300	-0.622354
O7	O	0.194000	0.040100	0.608000	-0.693748
O8	O	0.330800	0.181000	0.730800	-0.613836
O9	O	0.925400	0.800600	0.535000	-0.593255
O10	O	0.997600	0.788500	0.686100	-0.616471
O11	O	0.311000	0.908000	0.818100	-0.631868
O12	O	0.299700	0.774700	0.654700	-0.622354
