data_TECTUS_clean_PM
_symmetry_space_group_name_H-M	'P1'
_cell_length_a	9.926100
_cell_length_b	9.926100
_cell_length_c	18.287271
_cell_angle_alpha	95.776943
_cell_angle_beta	103.313048
_cell_angle_gamma	112.974001
_symmetry_Int_Tables_number 1

loop_
_symmetry_equiv_pos_as_xyz
'x,y,z'

loop_
_atom_site_label
_atom_site_type_symbol
_atom_site_fract_x
_atom_site_fract_y
_atom_site_fract_z
_atom_site_charge
Ca1	Ca	0.790080	0.450280	0.048720	1.540028
Ca2	Ca	0.901560	0.741360	0.451280	1.540028
Ca3	Ca	0.209920	0.549720	0.951280	1.540028
Ca4	Ca	0.098440	0.258640	0.548720	1.540028
Ca5	Ca	0.706260	0.456260	0.250000	1.714741
Ca6	Ca	0.293740	0.543740	0.750000	1.714741
H1	H	0.885600	0.819800	0.275200	0.102152
H2	H	0.758800	0.949200	0.080000	0.102152
H3	H	0.911000	0.235600	0.283600	0.102152
H4	H	0.044600	0.610400	0.224800	0.102152
H5	H	0.369200	0.678800	0.420000	0.102152
H6	H	0.452000	0.627400	0.216400	0.102152
H7	H	0.114400	0.180200	0.724800	0.102152
H8	H	0.241200	0.050800	0.920000	0.102152
H9	H	0.089000	0.764400	0.716400	0.102152
H10	H	0.955400	0.389600	0.775200	0.102152
H11	H	0.630800	0.321200	0.580000	0.102152
H12	H	0.548000	0.372600	0.783600	0.102152
C1	C	0.872370	0.892900	0.250270	0.020031
C2	C	0.814570	0.861000	0.170770	-0.186458
C3	C	0.830230	0.110640	0.175870	-0.186458
C4	C	0.778700	0.709000	0.126300	0.742062
C5	C	0.795230	0.969940	0.133370	0.021273
C6	C	0.808220	0.227000	0.134620	0.742062
C7	C	0.972460	0.064900	0.379360	0.731428
C8	C	0.887650	0.142000	0.255250	0.020031
C9	C	0.910730	0.034000	0.292930	-0.185595
C10	C	0.142630	0.622100	0.249730	0.020031
C11	C	0.190230	0.643800	0.329230	-0.186458
C12	C	0.434770	0.654360	0.324130	-0.186458
C13	C	0.082700	0.652400	0.373700	0.742062
C14	C	0.336570	0.661860	0.366630	0.021273
C15	C	0.592380	0.673600	0.365380	0.742062
C16	C	0.185540	0.593100	0.120640	0.731428
C17	C	0.386750	0.632400	0.244750	0.020031
C18	C	0.241070	0.617800	0.207070	-0.185595
C19	C	0.127630	0.107100	0.749730	0.020031
C20	C	0.185430	0.139000	0.829230	-0.186458
C21	C	0.169770	0.889360	0.824130	-0.186458
C22	C	0.221300	0.291000	0.873700	0.742062
C23	C	0.204770	0.030060	0.866630	0.021273
C24	C	0.191780	0.773000	0.865380	0.742062
C25	C	0.027540	0.935100	0.620640	0.731428
C26	C	0.112350	0.858000	0.744750	0.020031
C27	C	0.089270	0.966000	0.707070	-0.185595
C28	C	0.857370	0.377900	0.750270	0.020031
C29	C	0.809770	0.356200	0.670770	-0.186458
C30	C	0.565230	0.345640	0.675870	-0.186458
C31	C	0.917300	0.347600	0.626300	0.742062
C32	C	0.663430	0.338140	0.633370	0.021273
C33	C	0.407620	0.326400	0.634620	0.742062
C34	C	0.814460	0.406900	0.879360	0.731428
C35	C	0.613250	0.367600	0.755250	0.020031
C36	C	0.758930	0.382200	0.792930	-0.185595
O1	O	0.767880	0.604400	0.161480	-0.827408
O2	O	0.763840	0.690990	0.055030	-0.672516
O3	O	0.795390	0.334330	0.171520	-0.827408
O4	O	0.803900	0.216430	0.065330	-0.672516
O5	O	0.011960	0.195400	0.415760	-0.711192
O6	O	0.981770	0.959610	0.409780	-0.711192
O7	O	0.942920	0.606400	0.338520	-0.827408
O8	O	0.135960	0.708810	0.444970	-0.672516
O9	O	0.662810	0.623870	0.328480	-0.827408
O10	O	0.651100	0.738570	0.434670	-0.672516
O11	O	0.279640	0.596200	0.084240	-0.711192
O12	O	0.049830	0.571990	0.090220	-0.711192
O13	O	0.232120	0.395600	0.838520	-0.827408
O14	O	0.236160	0.309010	0.944970	-0.672516
O15	O	0.204610	0.665670	0.828480	-0.827408
O16	O	0.196100	0.783570	0.934670	-0.672516
O17	O	0.988040	0.804600	0.584240	-0.711192
O18	O	0.018230	0.040390	0.590220	-0.711192
O19	O	0.057080	0.393600	0.661480	-0.827408
O20	O	0.864040	0.291190	0.555030	-0.672516
O21	O	0.337190	0.376130	0.671520	-0.827408
O22	O	0.348900	0.261430	0.565330	-0.672516
O23	O	0.720360	0.403800	0.915760	-0.711192
O24	O	0.950170	0.428010	0.909780	-0.711192
