data_TEQPAI_clean_PM
_symmetry_space_group_name_H-M	'P1'
_cell_length_a	14.489000
_cell_length_b	18.115000
_cell_length_c	22.113000
_cell_angle_alpha	90.000000
_cell_angle_beta	90.000000
_cell_angle_gamma	90.000000
_symmetry_Int_Tables_number 1

loop_
_symmetry_equiv_pos_as_xyz
'x,y,z'

loop_
_atom_site_label
_atom_site_type_symbol
_atom_site_fract_x
_atom_site_fract_y
_atom_site_fract_z
_atom_site_charge
Zn1	Zn	0.492170	0.329990	0.750680	1.086377
Zn2	Zn	0.655680	0.252830	0.829180	1.086377
Zn3	Zn	0.640660	0.237100	0.684190	1.086377
Zn4	Zn	0.495120	0.155430	0.774570	1.086377
Zn5	Zn	0.507830	0.670010	0.250680	1.086377
Zn6	Zn	0.344320	0.747170	0.329180	1.086377
Zn7	Zn	0.359340	0.762900	0.184190	1.086377
Zn8	Zn	0.504880	0.844570	0.274570	1.086377
Zn9	Zn	0.007830	0.829990	0.750680	1.086377
Zn10	Zn	0.844320	0.752830	0.829180	1.086377
Zn11	Zn	0.859340	0.737100	0.684190	1.086377
Zn12	Zn	0.004880	0.655430	0.774570	1.086377
Zn13	Zn	0.992170	0.170010	0.250680	1.086377
Zn14	Zn	0.155680	0.247170	0.329180	1.086377
Zn15	Zn	0.140660	0.262900	0.184190	1.086377
Zn16	Zn	0.995120	0.344570	0.274570	1.086377
H1	H	0.127900	0.151600	0.843400	0.120896
H2	H	0.214800	0.201900	0.852700	0.120896
H3	H	0.223100	0.128400	0.815600	0.120896
H4	H	0.581300	0.321200	0.979200	0.120896
H5	H	0.528000	0.328000	0.040700	0.120896
H6	H	0.616400	0.375900	0.029200	0.120896
H7	H	0.530400	0.406100	0.115800	0.120896
H8	H	0.458300	0.439100	0.161200	0.120896
H9	H	0.554400	0.477500	0.152700	0.120896
H10	H	0.328100	0.045400	0.965400	0.120896
H11	H	0.377100	0.059400	0.903300	0.120896
H12	H	0.341800	0.126300	0.941800	0.120896
H13	H	0.022100	0.154900	0.839200	0.120896
H14	H	0.930000	0.122700	0.812900	0.120896
H15	H	0.929500	0.198500	0.847200	0.120896
H16	H	0.300700	0.925400	0.069500	0.120896
H17	H	0.319700	0.944900	0.001600	0.120896
H18	H	0.284800	0.006100	0.046100	0.120896
H19	H	0.872100	0.848400	0.343400	0.120896
H20	H	0.785200	0.798100	0.352700	0.120896
H21	H	0.776900	0.871600	0.315600	0.120896
H22	H	0.418700	0.678800	0.479200	0.120896
H23	H	0.472000	0.672000	0.540700	0.120896
H24	H	0.383600	0.624100	0.529200	0.120896
H25	H	0.469600	0.593900	0.615800	0.120896
H26	H	0.541700	0.560900	0.661200	0.120896
H27	H	0.445600	0.522500	0.652700	0.120896
H28	H	0.671900	0.954600	0.465400	0.120896
H29	H	0.622900	0.940600	0.403300	0.120896
H30	H	0.658200	0.873700	0.441800	0.120896
H31	H	0.977900	0.845100	0.339200	0.120896
H32	H	0.070000	0.877300	0.312900	0.120896
H33	H	0.070500	0.801500	0.347200	0.120896
H34	H	0.699300	0.074600	0.569500	0.120896
H35	H	0.680300	0.055100	0.501600	0.120896
H36	H	0.715200	0.993900	0.546100	0.120896
H37	H	0.372100	0.651600	0.843400	0.120896
H38	H	0.285200	0.701900	0.852700	0.120896
H39	H	0.276900	0.628400	0.815600	0.120896
H40	H	0.918700	0.821200	0.979200	0.120896
H41	H	0.972000	0.828000	0.040700	0.120896
H42	H	0.883600	0.875900	0.029200	0.120896
H43	H	0.969600	0.906100	0.115800	0.120896
H44	H	0.041700	0.939100	0.161200	0.120896
H45	H	0.945600	0.977500	0.152700	0.120896
H46	H	0.171900	0.545400	0.965400	0.120896
H47	H	0.122900	0.559400	0.903300	0.120896
H48	H	0.158200	0.626300	0.941800	0.120896
H49	H	0.477900	0.654900	0.839200	0.120896
H50	H	0.570000	0.622700	0.812900	0.120896
H51	H	0.570500	0.698500	0.847200	0.120896
H52	H	0.199300	0.425400	0.069500	0.120896
H53	H	0.180300	0.444900	0.001600	0.120896
H54	H	0.215200	0.506100	0.046100	0.120896
H55	H	0.627900	0.348400	0.343400	0.120896
H56	H	0.714800	0.298100	0.352700	0.120896
H57	H	0.723100	0.371600	0.315600	0.120896
H58	H	0.081300	0.178800	0.479200	0.120896
H59	H	0.028000	0.172000	0.540700	0.120896
H60	H	0.116400	0.124100	0.529200	0.120896
H61	H	0.030400	0.093900	0.615800	0.120896
H62	H	0.958300	0.060900	0.661200	0.120896
H63	H	0.054400	0.022500	0.652700	0.120896
H64	H	0.828100	0.454600	0.465400	0.120896
H65	H	0.877100	0.440600	0.403300	0.120896
H66	H	0.841800	0.373700	0.441800	0.120896
H67	H	0.522100	0.345100	0.339200	0.120896
H68	H	0.430000	0.377300	0.312900	0.120896
H69	H	0.429500	0.301500	0.347200	0.120896
H70	H	0.800700	0.574600	0.569500	0.120896
H71	H	0.819700	0.555100	0.501600	0.120896
H72	H	0.784800	0.493900	0.546100	0.120896
C1	C	0.331200	0.254300	0.743000	0.735138
C2	C	0.227400	0.247500	0.733900	-0.274567
C3	C	0.161900	0.208400	0.771200	0.116576
C4	C	0.183700	0.169400	0.825100	-0.349420
C5	C	0.513000	0.377800	0.869400	0.735138
C6	C	0.482600	0.421600	0.922800	-0.274567
C7	C	0.504400	0.414000	0.984600	0.116576
C8	C	0.466400	0.473000	0.020200	-0.082576
C9	C	0.419200	0.523100	0.984800	-0.040092
C10	C	0.465900	0.498400	0.082100	0.116576
C11	C	0.425700	0.564300	0.089000	-0.274567
C12	C	0.562700	0.354500	0.010700	-0.349420
C13	C	0.506000	0.450900	0.132600	-0.349420
C14	C	0.557900	0.164600	0.905900	0.735138
C15	C	0.535400	0.120400	0.961700	-0.274567
C16	C	0.458500	0.081600	0.974600	0.116576
C17	C	0.368500	0.077900	0.943600	-0.349420
C18	C	0.814100	0.222800	0.730800	0.735138
C19	C	0.913400	0.230000	0.725600	-0.274567
C20	C	0.980400	0.204100	0.765900	0.116576
C21	C	0.072000	0.222300	0.746800	-0.082576
C22	C	0.069700	0.262900	0.696900	-0.040092
C23	C	0.964200	0.167100	0.820600	-0.349420
C24	C	0.466000	0.886400	0.143800	0.735138
C25	C	0.480300	0.949400	0.102300	-0.274567
C26	C	0.424300	0.982600	0.058400	0.116576
C27	C	0.475800	0.037700	0.027800	-0.082576
C28	C	0.562200	0.046500	0.053200	-0.040092
C29	C	0.322600	0.962900	0.042400	-0.349420
C30	C	0.426700	0.616300	0.136100	0.735138
C31	C	0.668800	0.745700	0.243000	0.735138
C32	C	0.772600	0.752500	0.233900	-0.274567
C33	C	0.838100	0.791600	0.271200	0.116576
C34	C	0.816300	0.830600	0.325100	-0.349420
C35	C	0.487000	0.622200	0.369400	0.735138
C36	C	0.517400	0.578400	0.422800	-0.274567
C37	C	0.495600	0.586000	0.484600	0.116576
C38	C	0.533600	0.527000	0.520200	-0.082576
C39	C	0.580800	0.476900	0.484800	-0.040092
C40	C	0.534100	0.501600	0.582100	0.116576
C41	C	0.574300	0.435700	0.589000	-0.274567
C42	C	0.437300	0.645500	0.510700	-0.349420
C43	C	0.494000	0.549100	0.632600	-0.349420
C44	C	0.442100	0.835400	0.405900	0.735138
C45	C	0.464600	0.879600	0.461700	-0.274567
C46	C	0.541500	0.918400	0.474600	0.116576
C47	C	0.631500	0.922100	0.443600	-0.349420
C48	C	0.185900	0.777200	0.230800	0.735138
C49	C	0.086600	0.770000	0.225600	-0.274567
C50	C	0.019600	0.795900	0.265900	0.116576
C51	C	0.928000	0.777700	0.246800	-0.082576
C52	C	0.930300	0.737100	0.196900	-0.040092
C53	C	0.035800	0.832900	0.320600	-0.349420
C54	C	0.534000	0.113600	0.643800	0.735138
C55	C	0.519700	0.050600	0.602300	-0.274567
C56	C	0.575700	0.017400	0.558400	0.116576
C57	C	0.524200	0.962300	0.527800	-0.082576
C58	C	0.437800	0.953500	0.553200	-0.040092
C59	C	0.677400	0.037100	0.542400	-0.349420
C60	C	0.573300	0.383700	0.636100	0.735138
C61	C	0.168800	0.754300	0.743000	0.735138
C62	C	0.272600	0.747500	0.733900	-0.274567
C63	C	0.338100	0.708400	0.771200	0.116576
C64	C	0.316300	0.669400	0.825100	-0.349420
C65	C	0.987000	0.877800	0.869400	0.735138
C66	C	0.017400	0.921600	0.922800	-0.274567
C67	C	0.995600	0.914000	0.984600	0.116576
C68	C	0.033600	0.973000	0.020200	-0.082576
C69	C	0.080800	0.023100	0.984800	-0.040092
C70	C	0.034100	0.998400	0.082100	0.116576
C71	C	0.074300	0.064300	0.089000	-0.274567
C72	C	0.937300	0.854500	0.010700	-0.349420
C73	C	0.994000	0.950900	0.132600	-0.349420
C74	C	0.942100	0.664600	0.905900	0.735138
C75	C	0.964600	0.620400	0.961700	-0.274567
C76	C	0.041500	0.581600	0.974600	0.116576
C77	C	0.131500	0.577900	0.943600	-0.349420
C78	C	0.685900	0.722800	0.730800	0.735138
C79	C	0.586600	0.730000	0.725600	-0.274567
C80	C	0.519600	0.704100	0.765900	0.116576
C81	C	0.428000	0.722300	0.746800	-0.082576
C82	C	0.430300	0.762900	0.696900	-0.040092
C83	C	0.535800	0.667100	0.820600	-0.349420
C84	C	0.034000	0.386400	0.143800	0.735138
C85	C	0.019700	0.449400	0.102300	-0.274567
C86	C	0.075700	0.482600	0.058400	0.116576
C87	C	0.024200	0.537700	0.027800	-0.082576
C88	C	0.937800	0.546500	0.053200	-0.040092
C89	C	0.177400	0.462900	0.042400	-0.349420
C90	C	0.073300	0.116300	0.136100	0.735138
C91	C	0.831200	0.245700	0.243000	0.735138
C92	C	0.727400	0.252500	0.233900	-0.274567
C93	C	0.661900	0.291600	0.271200	0.116576
C94	C	0.683700	0.330600	0.325100	-0.349420
C95	C	0.013000	0.122200	0.369400	0.735138
C96	C	0.982600	0.078400	0.422800	-0.274567
C97	C	0.004400	0.086000	0.484600	0.116576
C98	C	0.966400	0.027000	0.520200	-0.082576
C99	C	0.919200	0.976900	0.484800	-0.040092
C100	C	0.965900	0.001600	0.582100	0.116576
C101	C	0.925700	0.935700	0.589000	-0.274567
C102	C	0.062700	0.145500	0.510700	-0.349420
C103	C	0.006000	0.049100	0.632600	-0.349420
C104	C	0.057900	0.335400	0.405900	0.735138
C105	C	0.035400	0.379600	0.461700	-0.274567
C106	C	0.958500	0.418400	0.474600	0.116576
C107	C	0.868500	0.422100	0.443600	-0.349420
C108	C	0.314100	0.277200	0.230800	0.735138
C109	C	0.413400	0.270000	0.225600	-0.274567
C110	C	0.480400	0.295900	0.265900	0.116576
C111	C	0.572000	0.277700	0.246800	-0.082576
C112	C	0.569700	0.237100	0.196900	-0.040092
C113	C	0.464200	0.332900	0.320600	-0.349420
C114	C	0.966000	0.613600	0.643800	0.735138
C115	C	0.980300	0.550600	0.602300	-0.274567
C116	C	0.924300	0.517400	0.558400	0.116576
C117	C	0.975800	0.462300	0.527800	-0.082576
C118	C	0.062200	0.453500	0.553200	-0.040092
C119	C	0.822600	0.537100	0.542400	-0.349420
C120	C	0.926700	0.883700	0.636100	0.735138
S1	S	0.179700	0.293900	0.671500	0.145856
S2	S	0.418900	0.501000	0.908200	0.145856
S3	S	0.382300	0.600600	0.021100	0.145856
S4	S	0.628500	0.108200	0.012300	0.145856
S5	S	0.963400	0.277900	0.664600	0.145856
S6	S	0.586500	0.988800	0.110500	0.145856
S7	S	0.820300	0.706100	0.171500	0.145856
S8	S	0.581100	0.499000	0.408200	0.145856
S9	S	0.617700	0.399400	0.521100	0.145856
S10	S	0.371500	0.891800	0.512300	0.145856
S11	S	0.036600	0.722100	0.164600	0.145856
S12	S	0.413500	0.011200	0.610500	0.145856
S13	S	0.320300	0.793900	0.671500	0.145856
S14	S	0.081100	0.001000	0.908200	0.145856
S15	S	0.117700	0.100600	0.021100	0.145856
S16	S	0.871500	0.608200	0.012300	0.145856
S17	S	0.536600	0.777900	0.664600	0.145856
S18	S	0.913500	0.488800	0.110500	0.145856
S19	S	0.679700	0.206100	0.171500	0.145856
S20	S	0.918900	0.999000	0.408200	0.145856
S21	S	0.882300	0.899400	0.521100	0.145856
S22	S	0.128500	0.391800	0.512300	0.145856
S23	S	0.463400	0.222100	0.164600	0.145856
S24	S	0.086500	0.511200	0.610500	0.145856
O1	O	0.575500	0.247500	0.757800	-1.013725
O2	O	0.369800	0.211200	0.777300	-0.615117
O3	O	0.369100	0.310200	0.714800	-0.615117
O4	O	0.471600	0.390300	0.821700	-0.615117
O5	O	0.576500	0.336500	0.878900	-0.615117
O6	O	0.639700	0.189200	0.898500	-0.615117
O7	O	0.494700	0.172600	0.866800	-0.615117
O8	O	0.776500	0.199400	0.774700	-0.615117
O9	O	0.773500	0.250500	0.683800	-0.615117
O10	O	0.382600	0.849400	0.136400	-0.615117
O11	O	0.522900	0.867400	0.180700	-0.615117
O12	O	0.461800	0.597100	0.189800	-0.615117
O13	O	0.390200	0.677700	0.127800	-0.615117
O14	O	0.424500	0.752500	0.257800	-1.013725
O15	O	0.630200	0.788800	0.277300	-0.615117
O16	O	0.630900	0.689800	0.214800	-0.615117
O17	O	0.528400	0.609700	0.321700	-0.615117
O18	O	0.423500	0.663500	0.378900	-0.615117
O19	O	0.360300	0.810800	0.398500	-0.615117
O20	O	0.505300	0.827400	0.366800	-0.615117
O21	O	0.223500	0.800600	0.274700	-0.615117
O22	O	0.226500	0.749500	0.183800	-0.615117
O23	O	0.617400	0.150600	0.636400	-0.615117
O24	O	0.477100	0.132600	0.680700	-0.615117
O25	O	0.538200	0.402900	0.689800	-0.615117
O26	O	0.609800	0.322300	0.627800	-0.615117
O27	O	0.924500	0.747500	0.757800	-1.013725
O28	O	0.130200	0.711200	0.777300	-0.615117
O29	O	0.130900	0.810200	0.714800	-0.615117
O30	O	0.028400	0.890300	0.821700	-0.615117
O31	O	0.923500	0.836500	0.878900	-0.615117
O32	O	0.860300	0.689200	0.898500	-0.615117
O33	O	0.005300	0.672600	0.866800	-0.615117
O34	O	0.723500	0.699400	0.774700	-0.615117
O35	O	0.726500	0.750500	0.683800	-0.615117
O36	O	0.117400	0.349400	0.136400	-0.615117
O37	O	0.977100	0.367400	0.180700	-0.615117
O38	O	0.038200	0.097100	0.189800	-0.615117
O39	O	0.109800	0.177700	0.127800	-0.615117
O40	O	0.075500	0.252500	0.257800	-1.013725
O41	O	0.869800	0.288800	0.277300	-0.615117
O42	O	0.869100	0.189800	0.214800	-0.615117
O43	O	0.971600	0.109700	0.321700	-0.615117
O44	O	0.076500	0.163500	0.378900	-0.615117
O45	O	0.139700	0.310800	0.398500	-0.615117
O46	O	0.994700	0.327400	0.366800	-0.615117
O47	O	0.276500	0.300600	0.274700	-0.615117
O48	O	0.273500	0.249500	0.183800	-0.615117
O49	O	0.882600	0.650600	0.636400	-0.615117
O50	O	0.022900	0.632600	0.680700	-0.615117
O51	O	0.961800	0.902900	0.689800	-0.615117
O52	O	0.890200	0.822300	0.627800	-0.615117
