data_TEQVAO_manual_PM
_symmetry_space_group_name_H-M	'P1'
_cell_length_a	13.790900
_cell_length_b	16.287900
_cell_length_c	22.017000
_cell_angle_alpha	90.000000
_cell_angle_beta	90.000000
_cell_angle_gamma	90.000000
_symmetry_Int_Tables_number 1

loop_
_symmetry_equiv_pos_as_xyz
'x,y,z'

loop_
_atom_site_label
_atom_site_type_symbol
_atom_site_fract_x
_atom_site_fract_y
_atom_site_fract_z
_atom_site_charge
Mg1	Mg	0.222100	0.550910	0.759150	1.573513
Mg2	Mg	0.722100	0.449090	0.740850	1.573513
Mg3	Mg	0.777900	0.050910	0.240850	1.573513
Mg4	Mg	0.277900	0.949090	0.259150	1.573513
Mg5	Mg	0.777900	0.449090	0.240850	1.573513
Mg6	Mg	0.277900	0.550910	0.259150	1.573513
Mg7	Mg	0.222100	0.949090	0.759150	1.573513
Mg8	Mg	0.722100	0.050910	0.740850	1.573513
Zn1	Zn	0.979790	0.497910	0.668830	1.064331
Zn2	Zn	0.479790	0.502090	0.831170	1.064331
Zn3	Zn	0.020210	0.997910	0.331170	1.064331
Zn4	Zn	0.520210	0.002090	0.168830	1.064331
Zn5	Zn	0.020210	0.502090	0.331170	1.064331
Zn6	Zn	0.520210	0.497910	0.168830	1.064331
Zn7	Zn	0.979790	0.002090	0.668830	1.064331
Zn8	Zn	0.479790	0.997910	0.831170	1.064331
H1	H	0.359220	0.582600	0.617460	0.112551
H2	H	0.494850	0.664890	0.564380	0.122139
H3	H	0.520940	0.636730	0.484080	0.122139
H4	H	0.534330	0.558690	0.545280	0.122139
H5	H	0.392950	0.584440	0.420970	0.112551
H6	H	0.113820	0.518970	0.501320	0.105502
H7	H	0.758010	0.616620	0.844830	0.112551
H8	H	0.666950	0.684070	0.917550	0.122139
H9	H	0.178610	0.384090	0.859970	0.112551
H10	H	0.314990	0.283930	0.914980	0.122139
H11	H	0.859220	0.417400	0.882540	0.112551
H12	H	0.012470	0.396520	0.921590	0.122139
H13	H	0.038560	0.424680	0.001890	0.122139
H14	H	0.999090	0.318480	0.982790	0.122139
H15	H	0.892950	0.415560	0.079030	0.112551
H16	H	0.613820	0.481030	0.998680	0.105502
H17	H	0.258010	0.383380	0.655170	0.112551
H18	H	0.161800	0.184070	0.585110	0.122139
H19	H	0.678610	0.615910	0.640030	0.112551
H20	H	0.758350	0.684020	0.561310	0.122139
H21	H	0.640780	0.082600	0.382540	0.112551
H22	H	0.460380	0.059320	0.481200	0.122139
H23	H	0.497820	0.134500	0.421990	0.122139
H24	H	0.491680	0.166500	0.503080	0.122139
H25	H	0.607050	0.084440	0.579030	0.112551
H26	H	0.886180	0.018970	0.498680	0.105502
H27	H	0.241990	0.116620	0.155170	0.112551
H28	H	0.282300	0.280520	0.056250	0.122139
H29	H	0.821390	0.884090	0.140030	0.112551
H30	H	0.796160	0.783930	0.038480	0.122139
H31	H	0.140780	0.917400	0.117460	0.112551
H32	H	0.968770	0.894290	0.984480	0.122139
H33	H	0.974910	0.926280	0.065560	0.122139
H34	H	0.006200	0.819110	0.043690	0.122139
H35	H	0.107050	0.915560	0.920970	0.112551
H36	H	0.386180	0.981030	0.001320	0.105502
H37	H	0.741990	0.883380	0.344830	0.112551
H38	H	0.833050	0.684070	0.417550	0.122139
H39	H	0.321390	0.115910	0.359970	0.112551
H40	H	0.239530	0.184020	0.437800	0.122139
H41	H	0.640780	0.417400	0.382540	0.112551
H42	H	0.500910	0.318480	0.482790	0.122139
H43	H	0.487530	0.396520	0.421590	0.122139
H44	H	0.461440	0.424680	0.501890	0.122139
H45	H	0.607050	0.415560	0.579030	0.112551
H46	H	0.886180	0.481030	0.498680	0.105502
H47	H	0.241990	0.383380	0.155170	0.112551
H48	H	0.338200	0.184070	0.085110	0.122139
H49	H	0.821390	0.615910	0.140030	0.112551
H50	H	0.741650	0.684020	0.061310	0.122139
H51	H	0.140780	0.582600	0.117460	0.112551
H52	H	0.979060	0.636730	0.984080	0.122139
H53	H	0.005150	0.664890	0.064380	0.122139
H54	H	0.965670	0.558690	0.045280	0.122139
H55	H	0.107050	0.584440	0.920970	0.112551
H56	H	0.386180	0.518970	0.001320	0.105502
H57	H	0.741990	0.616620	0.344830	0.112551
H58	H	0.888950	0.780520	0.388690	0.122139
H59	H	0.321390	0.384090	0.359970	0.112551
H60	H	0.185010	0.283930	0.414980	0.122139
H61	H	0.359220	0.917400	0.617460	0.112551
H62	H	0.525090	0.926280	0.565560	0.122139
H63	H	0.531230	0.894290	0.484480	0.122139
H64	H	0.493800	0.819110	0.543690	0.122139
H65	H	0.392950	0.915560	0.420970	0.112551
H66	H	0.113820	0.981030	0.501320	0.105502
H67	H	0.758010	0.883380	0.844830	0.112551
H68	H	0.611050	0.780520	0.888690	0.122139
H69	H	0.178610	0.115910	0.859970	0.112551
H70	H	0.260470	0.184020	0.937800	0.122139
H71	H	0.859220	0.082600	0.882540	0.112551
H72	H	0.002180	0.134500	0.921990	0.122139
H73	H	0.008320	0.166500	0.003080	0.122139
H74	H	0.039620	0.059320	0.981200	0.122139
H75	H	0.892950	0.084440	0.079030	0.112551
H76	H	0.613820	0.018970	0.998680	0.105502
H77	H	0.258010	0.116620	0.655170	0.112551
H78	H	0.217700	0.280520	0.556250	0.122139
H79	H	0.678610	0.884090	0.640030	0.112551
H80	H	0.703840	0.783930	0.538480	0.122139
H81	H	0.931360	0.749600	0.711000	0.105502
H82	H	0.431360	0.250400	0.789000	0.105502
H83	H	0.068640	0.250400	0.289000	0.105502
H84	H	0.568640	0.749600	0.211000	0.105502
H85	H	0.017630	0.249720	0.721120	0.105502
H86	H	0.517630	0.750280	0.778880	0.105502
H87	H	0.982370	0.750280	0.278880	0.105502
H88	H	0.482370	0.249720	0.221120	0.105502
H89	H	0.715130	0.785410	0.942420	0.122139
H90	H	0.113630	0.285410	0.609980	0.122139
H91	H	0.386370	0.285410	0.109980	0.122139
H92	H	0.784870	0.785410	0.442420	0.122139
H93	H	0.202770	0.282050	0.961960	0.122139
H94	H	0.816050	0.782050	0.585460	0.122139
H95	H	0.683950	0.782050	0.085460	0.122139
H96	H	0.297230	0.282050	0.461960	0.122139
C1	C	0.167900	0.539800	0.619400	0.738972
C2	C	0.230700	0.550900	0.564150	-0.140557
C3	C	0.326500	0.574400	0.570300	-0.107978
C4	C	0.383600	0.588200	0.520400	0.093227
C5	C	0.490400	0.613800	0.529100	-0.341171
C6	C	0.345400	0.575400	0.462800	-0.107978
C7	C	0.248500	0.551400	0.456100	-0.140557
C8	C	0.206600	0.542500	0.393900	0.738972
C9	C	0.192500	0.539100	0.506810	0.015418
C10	C	0.874700	0.597500	0.745550	0.738972
C11	C	0.845200	0.676100	0.775060	-0.140557
C12	C	0.783900	0.676900	0.824100	-0.107978
C13	C	0.072300	0.402700	0.756400	0.738972
C14	C	0.096700	0.323200	0.787420	-0.140557
C15	C	0.154200	0.323400	0.839200	-0.107978
C16	C	0.667900	0.460200	0.880600	0.738972
C17	C	0.730700	0.449100	0.935850	-0.140557
C18	C	0.826500	0.425600	0.929700	-0.107978
C19	C	0.883600	0.411800	0.979600	0.093227
C20	C	0.990400	0.386200	0.970900	-0.341171
C21	C	0.845400	0.424600	0.037200	-0.107978
C22	C	0.748500	0.448600	0.043900	-0.140557
C23	C	0.706600	0.457500	0.106100	0.738972
C24	C	0.692500	0.460900	0.993190	0.015418
C25	C	0.374700	0.402500	0.754450	0.738972
C26	C	0.345200	0.323900	0.724940	-0.140557
C27	C	0.283900	0.323100	0.675900	-0.107978
C28	C	0.572300	0.597300	0.743600	0.738972
C29	C	0.596700	0.676800	0.712580	-0.140557
C30	C	0.654200	0.676600	0.660800	-0.107978
C31	C	0.832100	0.039800	0.380600	0.738972
C32	C	0.769300	0.050900	0.435850	-0.140557
C33	C	0.673500	0.074400	0.429700	-0.107978
C34	C	0.616400	0.088200	0.479600	0.093227
C35	C	0.509600	0.113800	0.470900	-0.341171
C36	C	0.654600	0.075400	0.537200	-0.107978
C37	C	0.751500	0.051400	0.543900	-0.140557
C38	C	0.793400	0.042500	0.606100	0.738972
C39	C	0.807500	0.039100	0.493190	0.015418
C40	C	0.125300	0.097500	0.254450	0.738972
C41	C	0.154800	0.176100	0.224940	-0.140557
C42	C	0.216100	0.176900	0.175900	-0.107978
C43	C	0.927700	0.902700	0.243600	0.738972
C44	C	0.903300	0.823200	0.212580	-0.140557
C45	C	0.845800	0.823400	0.160800	-0.107978
C46	C	0.332100	0.960200	0.119400	0.738972
C47	C	0.269300	0.949100	0.064150	-0.140557
C48	C	0.173500	0.925600	0.070300	-0.107978
C49	C	0.116400	0.911800	0.020400	0.093227
C50	C	0.009600	0.886200	0.029100	-0.341171
C51	C	0.154600	0.924600	0.962800	-0.107978
C52	C	0.251500	0.948600	0.956100	-0.140557
C53	C	0.293400	0.957500	0.893900	0.738972
C54	C	0.307500	0.960900	0.006810	0.015418
C55	C	0.625300	0.902500	0.245550	0.738972
C56	C	0.654800	0.823900	0.275060	-0.140557
C57	C	0.716100	0.823100	0.324100	-0.107978
C58	C	0.427700	0.097300	0.256400	0.738972
C59	C	0.403300	0.176800	0.287420	-0.140557
C60	C	0.345800	0.176600	0.339200	-0.107978
C61	C	0.832100	0.460200	0.380600	0.738972
C62	C	0.769300	0.449100	0.435850	-0.140557
C63	C	0.673500	0.425600	0.429700	-0.107978
C64	C	0.616400	0.411800	0.479600	0.093227
C65	C	0.509600	0.386200	0.470900	-0.341171
C66	C	0.654600	0.424600	0.537200	-0.107978
C67	C	0.751500	0.448600	0.543900	-0.140557
C68	C	0.793400	0.457500	0.606100	0.738972
C69	C	0.807500	0.460900	0.493190	0.015418
C70	C	0.125300	0.402500	0.254450	0.738972
C71	C	0.154800	0.323900	0.224940	-0.140557
C72	C	0.216100	0.323100	0.175900	-0.107978
C73	C	0.927700	0.597300	0.243600	0.738972
C74	C	0.903300	0.676800	0.212580	-0.140557
C75	C	0.845800	0.676600	0.160800	-0.107978
C76	C	0.332100	0.539800	0.119400	0.738972
C77	C	0.269300	0.550900	0.064150	-0.140557
C78	C	0.173500	0.574400	0.070300	-0.107978
C79	C	0.116400	0.588200	0.020400	0.093227
C80	C	0.009600	0.613800	0.029100	-0.341171
C81	C	0.154600	0.575400	0.962800	-0.107978
C82	C	0.251500	0.551400	0.956100	-0.140557
C83	C	0.293400	0.542500	0.893900	0.738972
C84	C	0.307500	0.539100	0.006810	0.015418
C85	C	0.625300	0.597500	0.245550	0.738972
C86	C	0.654800	0.676100	0.275060	-0.140557
C87	C	0.716100	0.676900	0.324100	-0.107978
C88	C	0.427700	0.402700	0.256400	0.738972
C89	C	0.403300	0.323200	0.287420	-0.140557
C90	C	0.345800	0.323400	0.339200	-0.107978
C91	C	0.167900	0.960200	0.619400	0.738972
C92	C	0.230700	0.949100	0.564150	-0.140557
C93	C	0.326500	0.925600	0.570300	-0.107978
C94	C	0.383600	0.911800	0.520400	0.093227
C95	C	0.490400	0.886200	0.529100	-0.341171
C96	C	0.345400	0.924600	0.462800	-0.107978
C97	C	0.248500	0.948600	0.456100	-0.140557
C98	C	0.206600	0.957500	0.393900	0.738972
C99	C	0.192500	0.960900	0.506810	0.015418
C100	C	0.874700	0.902500	0.745550	0.738972
C101	C	0.845200	0.823900	0.775060	-0.140557
C102	C	0.783900	0.823100	0.824100	-0.107978
C103	C	0.072300	0.097300	0.756400	0.738972
C104	C	0.096700	0.176800	0.787420	-0.140557
C105	C	0.154200	0.176600	0.839200	-0.107978
C106	C	0.667900	0.039800	0.880600	0.738972
C107	C	0.730700	0.050900	0.935850	-0.140557
C108	C	0.826500	0.074400	0.929700	-0.107978
C109	C	0.883600	0.088200	0.979600	0.093227
C110	C	0.990400	0.113800	0.970900	-0.341171
C111	C	0.845400	0.075400	0.037200	-0.107978
C112	C	0.748500	0.051400	0.043900	-0.140557
C113	C	0.706600	0.042500	0.106100	0.738972
C114	C	0.692500	0.039100	0.993190	0.015418
C115	C	0.374700	0.097500	0.754450	0.738972
C116	C	0.345200	0.176100	0.724940	-0.140557
C117	C	0.283900	0.176900	0.675900	-0.107978
C118	C	0.572300	0.902700	0.743600	0.738972
C119	C	0.596700	0.823200	0.712580	-0.140557
C120	C	0.654200	0.823400	0.660800	-0.107978
C121	C	0.878100	0.750000	0.750600	0.015418
C122	C	0.751500	0.750000	0.850000	0.093227
C123	C	0.681900	0.750000	0.902900	-0.341171
C124	C	0.378100	0.250000	0.749400	0.015418
C125	C	0.251500	0.250000	0.650000	0.093227
C126	C	0.181900	0.250000	0.597100	-0.341171
C127	C	0.121900	0.250000	0.249400	0.015418
C128	C	0.248500	0.250000	0.150000	0.093227
C129	C	0.318100	0.250000	0.097100	-0.341171
C130	C	0.621900	0.750000	0.250600	0.015418
C131	C	0.748500	0.750000	0.350000	0.093227
C132	C	0.818100	0.750000	0.402900	-0.341171
C133	C	0.182000	0.250000	0.865700	0.093227
C134	C	0.244100	0.250000	0.923900	-0.341171
C135	C	0.067100	0.250000	0.762600	0.015418
C136	C	0.682000	0.750000	0.634300	0.093227
C137	C	0.744100	0.750000	0.576100	-0.341171
C138	C	0.567100	0.750000	0.737400	0.015418
C139	C	0.818000	0.750000	0.134300	0.093227
C140	C	0.755900	0.750000	0.076100	-0.341171
C141	C	0.932900	0.750000	0.237400	0.015418
C142	C	0.318000	0.250000	0.365700	0.093227
C143	C	0.255900	0.250000	0.423900	-0.341171
C144	C	0.432900	0.250000	0.262600	0.015418
O1	O	0.082300	0.514500	0.610410	-0.616285
O2	O	0.200600	0.557300	0.670120	-0.765860
O3	O	0.116900	0.525800	0.392260	-0.616285
O4	O	0.258000	0.552500	0.349460	-0.765860
O5	O	0.950000	0.599980	0.711730	-0.616285
O6	O	0.828000	0.533700	0.754370	-0.765860
O7	O	0.004100	0.400100	0.716780	-0.616285
O8	O	0.114700	0.466600	0.769440	-0.765860
O9	O	0.582300	0.485500	0.889590	-0.616285
O10	O	0.700600	0.442700	0.829880	-0.765860
O11	O	0.616900	0.474200	0.107740	-0.616285
O12	O	0.758000	0.447500	0.150540	-0.765860
O13	O	0.450000	0.400020	0.788270	-0.616285
O14	O	0.328000	0.466300	0.745630	-0.765860
O15	O	0.504100	0.599900	0.783220	-0.616285
O16	O	0.614700	0.533400	0.730560	-0.765860
O17	O	0.917700	0.014500	0.389590	-0.616285
O18	O	0.799400	0.057300	0.329880	-0.765860
O19	O	0.883100	0.025800	0.607740	-0.616285
O20	O	0.742000	0.052500	0.650540	-0.765860
O21	O	0.050000	0.099980	0.288270	-0.616285
O22	O	0.172000	0.033700	0.245630	-0.765860
O23	O	0.995900	0.900100	0.283220	-0.616285
O24	O	0.885300	0.966600	0.230560	-0.765860
O25	O	0.417700	0.985500	0.110410	-0.616285
O26	O	0.299400	0.942700	0.170120	-0.765860
O27	O	0.383100	0.974200	0.892260	-0.616285
O28	O	0.242000	0.947500	0.849460	-0.765860
O29	O	0.550000	0.900020	0.211730	-0.616285
O30	O	0.672000	0.966300	0.254370	-0.765860
O31	O	0.495900	0.099900	0.216780	-0.616285
O32	O	0.385300	0.033400	0.269440	-0.765860
O33	O	0.917700	0.485500	0.389590	-0.616285
O34	O	0.799400	0.442700	0.329880	-0.765860
O35	O	0.883100	0.474200	0.607740	-0.616285
O36	O	0.742000	0.447500	0.650540	-0.765860
O37	O	0.050000	0.400020	0.288270	-0.616285
O38	O	0.172000	0.466300	0.245630	-0.765860
O39	O	0.995900	0.599900	0.283220	-0.616285
O40	O	0.885300	0.533400	0.230560	-0.765860
O41	O	0.417700	0.514500	0.110410	-0.616285
O42	O	0.299400	0.557300	0.170120	-0.765860
O43	O	0.383100	0.525800	0.892260	-0.616285
O44	O	0.242000	0.552500	0.849460	-0.765860
O45	O	0.550000	0.599980	0.211730	-0.616285
O46	O	0.672000	0.533700	0.254370	-0.765860
O47	O	0.495900	0.400100	0.216780	-0.616285
O48	O	0.385300	0.466600	0.269440	-0.765860
O49	O	0.082300	0.985500	0.610410	-0.616285
O50	O	0.200600	0.942700	0.670120	-0.765860
O51	O	0.116900	0.974200	0.392260	-0.616285
O52	O	0.258000	0.947500	0.349460	-0.765860
O53	O	0.950000	0.900020	0.711730	-0.616285
O54	O	0.828000	0.966300	0.754370	-0.765860
O55	O	0.004100	0.099900	0.716780	-0.616285
O56	O	0.114700	0.033400	0.769440	-0.765860
O57	O	0.582300	0.014500	0.889590	-0.616285
O58	O	0.700600	0.057300	0.829880	-0.765860
O59	O	0.616900	0.025800	0.107740	-0.616285
O60	O	0.758000	0.052500	0.150540	-0.765860
O61	O	0.450000	0.099980	0.788270	-0.616285
O62	O	0.328000	0.033700	0.745630	-0.765860
O63	O	0.504100	0.900100	0.783220	-0.616285
O64	O	0.614700	0.966600	0.730560	-0.765860
