data_TEYLIU_clean_PM
_symmetry_space_group_name_H-M	'P1'
_cell_length_a	6.203500
_cell_length_b	12.044500
_cell_length_c	22.737300
_cell_angle_alpha	90.000000
_cell_angle_beta	90.000000
_cell_angle_gamma	91.668999
_symmetry_Int_Tables_number 1

loop_
_symmetry_equiv_pos_as_xyz
'x,y,z'

loop_
_atom_site_label
_atom_site_type_symbol
_atom_site_fract_x
_atom_site_fract_y
_atom_site_fract_z
_atom_site_charge
Ce1	Ce	0.440660	0.936660	0.853390	2.223536
Ce2	Ce	0.059340	0.563340	0.353390	2.223536
Ce3	Ce	0.559340	0.063340	0.146610	2.223536
Ce4	Ce	0.940660	0.436660	0.646610	2.223536
Co1	Co	0.000000	0.500000	0.000000	0.953423
Co2	Co	0.500000	0.000000	0.500000	0.953423
H1	H	0.054800	0.601800	0.785900	0.104099
H2	H	0.528300	0.421700	0.819600	0.098626
H3	H	0.916200	0.741500	0.842800	0.104099
H4	H	0.812300	0.388200	0.881000	0.114410
H5	H	0.445200	0.898200	0.285900	0.104099
H6	H	0.971700	0.078300	0.319600	0.098626
H7	H	0.583800	0.758500	0.342800	0.104099
H8	H	0.687700	0.111800	0.381000	0.114410
H9	H	0.945200	0.398200	0.214100	0.104099
H10	H	0.471700	0.578300	0.180400	0.098626
H11	H	0.083800	0.258500	0.157200	0.104099
H12	H	0.187700	0.611800	0.119000	0.114410
H13	H	0.554800	0.101800	0.714100	0.104099
H14	H	0.028300	0.921700	0.680400	0.098626
H15	H	0.416200	0.241500	0.657200	0.104099
H16	H	0.312300	0.888200	0.619000	0.114410
C1	C	0.463200	0.537800	0.686700	0.758955
C2	C	0.916700	0.626200	0.778300	0.129895
C3	C	0.598800	0.613300	0.727360	0.094357
C4	C	0.657700	0.651400	0.006600	0.598453
C5	C	0.609600	0.585600	0.950730	0.071431
C6	C	0.330100	0.769700	0.736600	0.651339
C7	C	0.261900	0.683500	0.925700	0.695371
C8	C	0.528400	0.707400	0.755310	0.110039
C9	C	0.545400	0.464700	0.853400	0.131104
C10	C	0.436700	0.601900	0.913300	0.070973
C11	C	0.836600	0.713400	0.811200	0.129895
C12	C	0.718100	0.444300	0.890100	0.102673
C13	C	0.036800	0.962200	0.186700	0.758955
C14	C	0.583300	0.873800	0.278300	0.129895
C15	C	0.901200	0.886700	0.227360	0.094357
C16	C	0.842300	0.848600	0.506600	0.598453
C17	C	0.890400	0.914400	0.450730	0.071431
C18	C	0.169900	0.730300	0.236600	0.651339
C19	C	0.238100	0.816500	0.425700	0.695371
C20	C	0.971600	0.792600	0.255310	0.110039
C21	C	0.954600	0.035300	0.353400	0.131104
C22	C	0.063300	0.898100	0.413300	0.070973
C23	C	0.663400	0.786600	0.311200	0.129895
C24	C	0.781900	0.055700	0.390100	0.102673
C25	C	0.536800	0.462200	0.313300	0.758955
C26	C	0.083300	0.373800	0.221700	0.129895
C27	C	0.401200	0.386700	0.272640	0.094357
C28	C	0.342300	0.348600	0.993400	0.598453
C29	C	0.390400	0.414400	0.049270	0.071431
C30	C	0.669900	0.230300	0.263400	0.651339
C31	C	0.738100	0.316500	0.074300	0.695371
C32	C	0.471600	0.292600	0.244690	0.110039
C33	C	0.454600	0.535300	0.146600	0.131104
C34	C	0.563300	0.398100	0.086700	0.070973
C35	C	0.163400	0.286600	0.188800	0.129895
C36	C	0.281900	0.555700	0.109900	0.102673
C37	C	0.963200	0.037800	0.813300	0.758955
C38	C	0.416700	0.126200	0.721700	0.129895
C39	C	0.098800	0.113300	0.772640	0.094357
C40	C	0.157700	0.151400	0.493400	0.598453
C41	C	0.109600	0.085600	0.549270	0.071431
C42	C	0.830100	0.269700	0.763400	0.651339
C43	C	0.761900	0.183500	0.574300	0.695371
C44	C	0.028400	0.207400	0.744690	0.110039
C45	C	0.045400	0.964700	0.646600	0.131104
C46	C	0.936700	0.101900	0.586700	0.070973
C47	C	0.336600	0.213400	0.688800	0.129895
C48	C	0.218100	0.944300	0.609900	0.102673
N1	N	0.800100	0.577100	0.736110	-0.453357
N2	N	0.749300	0.504800	0.938630	-0.282333
N3	N	0.647000	0.757600	0.798090	-0.455496
N4	N	0.404200	0.542100	0.863820	-0.345517
N5	N	0.699900	0.922900	0.236110	-0.453357
N6	N	0.750700	0.995200	0.438630	-0.282333
N7	N	0.853000	0.742400	0.298090	-0.455496
N8	N	0.095800	0.957900	0.363820	-0.345517
N9	N	0.199900	0.422900	0.263890	-0.453357
N10	N	0.250700	0.495200	0.061370	-0.282333
N11	N	0.353000	0.242400	0.201910	-0.455496
N12	N	0.595800	0.457900	0.136180	-0.345517
N13	N	0.300100	0.077100	0.763890	-0.453357
N14	N	0.249300	0.004800	0.561370	-0.282333
N15	N	0.147000	0.257600	0.701910	-0.455496
N16	N	0.904200	0.042100	0.636180	-0.345517
O1	O	0.563900	0.499100	0.643030	-0.714351
O2	O	0.271400	0.515000	0.699610	-0.714351
O3	O	0.799400	0.611600	0.040020	-0.570228
O4	O	0.111100	0.651900	0.958440	-0.551880
O5	O	0.264500	0.841200	0.771750	-0.755996
O6	O	0.557200	0.737900	0.013960	-0.544813
O7	O	0.271200	0.774800	0.899500	-0.717897
O8	O	0.259000	0.748500	0.687520	-0.559745
O9	O	0.936100	0.000900	0.143030	-0.714351
O10	O	0.228600	0.985000	0.199610	-0.714351
O11	O	0.700600	0.888400	0.540020	-0.570228
O12	O	0.388900	0.848100	0.458440	-0.551880
O13	O	0.235500	0.658800	0.271750	-0.755996
O14	O	0.942800	0.762100	0.513960	-0.544813
O15	O	0.228800	0.725200	0.399500	-0.717897
O16	O	0.241000	0.751500	0.187520	-0.559745
O17	O	0.436100	0.500900	0.356970	-0.714351
O18	O	0.728600	0.485000	0.300390	-0.714351
O19	O	0.200600	0.388400	0.959980	-0.570228
O20	O	0.888900	0.348100	0.041560	-0.551880
O21	O	0.735500	0.158800	0.228250	-0.755996
O22	O	0.442800	0.262100	0.986040	-0.544813
O23	O	0.728800	0.225200	0.100500	-0.717897
O24	O	0.741000	0.251500	0.312480	-0.559745
O25	O	0.063900	0.999100	0.856970	-0.714351
O26	O	0.771400	0.015000	0.800390	-0.714351
O27	O	0.299400	0.111600	0.459980	-0.570228
O28	O	0.611100	0.151900	0.541560	-0.551880
O29	O	0.764500	0.341200	0.728250	-0.755996
O30	O	0.057200	0.237900	0.486040	-0.544813
O31	O	0.771200	0.274800	0.600500	-0.717897
O32	O	0.759000	0.248500	0.812480	-0.559745
