data_TISLIR_clean_PM
_symmetry_space_group_name_H-M	'P1'
_cell_length_a	8.517300
_cell_length_b	9.761500
_cell_length_c	22.405500
_cell_angle_alpha	90.000000
_cell_angle_beta	90.000000
_cell_angle_gamma	92.285000
_symmetry_Int_Tables_number 1

loop_
_symmetry_equiv_pos_as_xyz
'x,y,z'

loop_
_atom_site_label
_atom_site_type_symbol
_atom_site_fract_x
_atom_site_fract_y
_atom_site_fract_z
_atom_site_charge
Cd1	Cd	0.642500	0.982260	0.347820	0.891103
Cd2	Cd	0.329820	0.725730	0.397930	0.862329
Cd3	Cd	0.357500	0.517740	0.847820	0.891103
Cd4	Cd	0.670180	0.774270	0.897930	0.862329
Cd5	Cd	0.357500	0.017740	0.652180	0.891103
Cd6	Cd	0.670180	0.274270	0.602070	0.862329
Cd7	Cd	0.642500	0.482260	0.152180	0.891103
Cd8	Cd	0.329820	0.225730	0.102070	0.862329
Cd9	Cd	0.000000	0.500000	0.500000	0.823947
Cd10	Cd	0.000000	0.000000	0.000000	0.823947
H1	H	0.927300	0.815500	0.433900	0.074561
H2	H	0.381900	0.026000	0.232700	0.075969
H3	H	0.690100	0.302400	0.283600	0.075538
H4	H	0.618300	0.528000	0.470000	0.074785
H5	H	0.126700	0.164900	0.364200	0.154840
H6	H	0.304600	0.195100	0.349500	0.154840
H7	H	0.247700	0.192400	0.416000	0.154840
H8	H	0.072700	0.684500	0.933900	0.074561
H9	H	0.618100	0.474000	0.732700	0.075969
H10	H	0.309900	0.197600	0.783600	0.075538
H11	H	0.381700	0.972000	0.970000	0.074785
H12	H	0.873300	0.335100	0.864200	0.154840
H13	H	0.695400	0.304900	0.849500	0.154840
H14	H	0.752300	0.307600	0.916000	0.154840
H15	H	0.072700	0.184500	0.566100	0.074561
H16	H	0.618100	0.974000	0.767300	0.075969
H17	H	0.309900	0.697600	0.716400	0.075538
H18	H	0.381700	0.472000	0.530000	0.074785
H19	H	0.873300	0.835100	0.635800	0.154840
H20	H	0.695400	0.804900	0.650500	0.154840
H21	H	0.752300	0.807600	0.584000	0.154840
H22	H	0.927300	0.315500	0.066100	0.074561
H23	H	0.381900	0.526000	0.267300	0.075969
H24	H	0.690100	0.802400	0.216400	0.075538
H25	H	0.618300	0.028000	0.030000	0.074785
H26	H	0.126700	0.664900	0.135800	0.154840
H27	H	0.304600	0.695100	0.150500	0.154840
H28	H	0.247700	0.692400	0.084000	0.154840
C1	C	0.832700	0.764900	0.436500	0.252910
C2	C	0.830700	0.254500	0.414800	0.203514
C3	C	0.678700	0.141200	0.470300	0.201348
C4	C	0.444300	0.106200	0.234620	0.254775
C5	C	0.611500	0.255500	0.262100	0.253936
C6	C	0.665400	0.609600	0.456200	0.253756
C7	C	0.232500	0.152100	0.377300	-0.556144
C8	C	0.261100	0.001700	0.380500	0.732710
C9	C	0.167300	0.735100	0.936500	0.252910
C10	C	0.169300	0.245500	0.914800	0.203514
C11	C	0.321300	0.358800	0.970300	0.201348
C12	C	0.555700	0.393800	0.734620	0.254775
C13	C	0.388500	0.244500	0.762100	0.253936
C14	C	0.334600	0.890400	0.956200	0.253756
C15	C	0.767500	0.347900	0.877300	-0.556144
C16	C	0.738900	0.498300	0.880500	0.732710
C17	C	0.167300	0.235100	0.563500	0.252910
C18	C	0.169300	0.745500	0.585200	0.203514
C19	C	0.321300	0.858800	0.529700	0.201348
C20	C	0.555700	0.893800	0.765380	0.254775
C21	C	0.388500	0.744500	0.737900	0.253936
C22	C	0.334600	0.390400	0.543800	0.253756
C23	C	0.767500	0.847900	0.622700	-0.556144
C24	C	0.738900	0.998300	0.619500	0.732710
C25	C	0.832700	0.264900	0.063500	0.252910
C26	C	0.830700	0.754500	0.085200	0.203514
C27	C	0.678700	0.641200	0.029700	0.201348
C28	C	0.444300	0.606200	0.265380	0.254775
C29	C	0.611500	0.755500	0.237900	0.253936
C30	C	0.665400	0.109600	0.043800	0.253756
C31	C	0.232500	0.652100	0.122700	-0.556144
C32	C	0.261100	0.501700	0.119500	0.732710
N1	N	0.553800	0.130000	0.276760	-0.461403
N2	N	0.728900	0.147400	0.413990	-0.373158
N3	N	0.818400	0.642000	0.462290	-0.427972
N4	N	0.843400	0.313100	0.467990	-0.199596
N5	N	0.698300	0.807400	0.415060	-0.293923
N6	N	0.587600	0.706300	0.428350	-0.256096
N7	N	0.434000	0.207200	0.196500	-0.255157
N8	N	0.744200	0.238900	0.504450	-0.211858
N9	N	0.544900	0.305400	0.213920	-0.293142
N10	N	0.446200	0.370000	0.776760	-0.461403
N11	N	0.271100	0.352600	0.913990	-0.373158
N12	N	0.181600	0.858000	0.962290	-0.427972
N13	N	0.156600	0.186900	0.967990	-0.199596
N14	N	0.301700	0.692600	0.915060	-0.293923
N15	N	0.412400	0.793700	0.928350	-0.256096
N16	N	0.566000	0.292800	0.696500	-0.255157
N17	N	0.255800	0.261100	0.004450	-0.211858
N18	N	0.455100	0.194600	0.713920	-0.293142
N19	N	0.446200	0.870000	0.723240	-0.461403
N20	N	0.271100	0.852600	0.586010	-0.373158
N21	N	0.181600	0.358000	0.537710	-0.427972
N22	N	0.156600	0.686900	0.532010	-0.199596
N23	N	0.301700	0.192600	0.584940	-0.293923
N24	N	0.412400	0.293700	0.571650	-0.256096
N25	N	0.566000	0.792800	0.803500	-0.255157
N26	N	0.255800	0.761100	0.495550	-0.211858
N27	N	0.455100	0.694600	0.786080	-0.293142
N28	N	0.553800	0.630000	0.223240	-0.461403
N29	N	0.728900	0.647400	0.086010	-0.373158
N30	N	0.818400	0.142000	0.037710	-0.427972
N31	N	0.843400	0.813100	0.032010	-0.199596
N32	N	0.698300	0.307400	0.084940	-0.293923
N33	N	0.587600	0.206300	0.071650	-0.256096
N34	N	0.434000	0.707200	0.303500	-0.255157
N35	N	0.744200	0.738900	0.995550	-0.211858
N36	N	0.544900	0.805400	0.286080	-0.293142
Cl1	Cl	0.159040	0.508570	0.392200	-0.501214
Cl2	Cl	0.840960	0.991430	0.892200	-0.501214
Cl3	Cl	0.840960	0.491430	0.607800	-0.501214
Cl4	Cl	0.159040	0.008570	0.107800	-0.501214
O1	O	0.154200	0.915300	0.368410	-0.636130
O2	O	0.395400	0.964700	0.396890	-0.617935
O3	O	0.845800	0.584700	0.868410	-0.636130
O4	O	0.604600	0.535300	0.896890	-0.617935
O5	O	0.845800	0.084700	0.631590	-0.636130
O6	O	0.604600	0.035300	0.603110	-0.617935
O7	O	0.154200	0.415300	0.131590	-0.636130
O8	O	0.395400	0.464700	0.103110	-0.617935
