data_TUTZOX_clean_PM
_symmetry_space_group_name_H-M	'P1'
_cell_length_a	10.218000
_cell_length_b	14.283000
_cell_length_c	22.101000
_cell_angle_alpha	91.275999
_cell_angle_beta	90.000000
_cell_angle_gamma	90.000000
_symmetry_Int_Tables_number 1

loop_
_symmetry_equiv_pos_as_xyz
'x,y,z'

loop_
_atom_site_label
_atom_site_type_symbol
_atom_site_fract_x
_atom_site_fract_y
_atom_site_fract_z
_atom_site_charge
La1	La	0.443380	0.734990	0.741800	2.157787
La2	La	0.248860	0.978730	0.750070	2.140650
La3	La	0.943380	0.765010	0.258200	2.157787
La4	La	0.748860	0.521270	0.249930	2.140650
La5	La	0.556620	0.265010	0.258200	2.157787
La6	La	0.751140	0.021270	0.249930	2.140650
La7	La	0.056620	0.234990	0.741800	2.157787
La8	La	0.251140	0.478730	0.750070	2.140650
H1	H	0.639200	0.870700	0.533600	0.106895
H2	H	0.702300	0.814400	0.439300	0.106895
H3	H	0.330500	0.813100	0.386100	0.106895
H4	H	0.267400	0.863700	0.480600	0.106895
H5	H	0.455900	0.969700	0.585800	0.148097
H6	H	0.314000	0.933700	0.573100	0.148097
H7	H	0.624300	0.721200	0.343400	0.148097
H8	H	0.489600	0.754300	0.317100	0.148097
H9	H	0.839400	0.789600	0.903300	0.106895
H10	H	0.773900	0.862300	0.991300	0.106895
H11	H	0.144700	0.884300	0.044000	0.106895
H12	H	0.210700	0.813200	0.954900	0.106895
H13	H	0.008100	0.715400	0.841400	0.148097
H14	H	0.147900	0.704200	0.869600	0.148097
H15	H	0.956900	0.984000	0.092000	0.148097
H16	H	0.815300	0.944800	0.082400	0.148097
H17	H	0.581200	0.358800	0.531100	0.106895
H18	H	0.506700	0.627200	0.564700	0.106895
H19	H	0.699000	0.524300	0.620800	0.145113
H20	H	0.646100	0.421400	0.625800	0.145113
H21	H	0.466000	0.843300	0.978400	0.106895
H22	H	0.592000	0.095300	0.928700	0.106895
H23	H	0.652100	0.952200	0.868900	0.148097
H24	H	0.588700	0.856100	0.885300	0.148097
H25	H	0.139200	0.629300	0.466400	0.106895
H26	H	0.202300	0.685600	0.560700	0.106895
H27	H	0.830500	0.686900	0.613900	0.106895
H28	H	0.767400	0.636300	0.519400	0.106895
H29	H	0.955900	0.530300	0.414200	0.148097
H30	H	0.814000	0.566300	0.426900	0.148097
H31	H	0.124300	0.778800	0.656600	0.148097
H32	H	0.989600	0.745700	0.682900	0.148097
H33	H	0.339400	0.710400	0.096700	0.106895
H34	H	0.273900	0.637700	0.008700	0.106895
H35	H	0.644700	0.615700	0.956000	0.106895
H36	H	0.710700	0.686800	0.045100	0.106895
H37	H	0.508100	0.784600	0.158600	0.148097
H38	H	0.647900	0.795800	0.130400	0.148097
H39	H	0.456900	0.516000	0.908000	0.148097
H40	H	0.315300	0.555200	0.917600	0.148097
H41	H	0.081200	0.141200	0.468900	0.106895
H42	H	0.006700	0.872800	0.435300	0.106895
H43	H	0.199000	0.975700	0.379200	0.145113
H44	H	0.146100	0.078600	0.374200	0.145113
H45	H	0.966000	0.656700	0.021600	0.106895
H46	H	0.092000	0.404700	0.071300	0.106895
H47	H	0.152100	0.547800	0.131100	0.148097
H48	H	0.088700	0.643900	0.114700	0.148097
H49	H	0.360800	0.129300	0.466400	0.106895
H50	H	0.297700	0.185600	0.560700	0.106895
H51	H	0.669500	0.186900	0.613900	0.106895
H52	H	0.732600	0.136300	0.519400	0.106895
H53	H	0.544100	0.030300	0.414200	0.148097
H54	H	0.686000	0.066300	0.426900	0.148097
H55	H	0.375700	0.278800	0.656600	0.148097
H56	H	0.510400	0.245700	0.682900	0.148097
H57	H	0.160600	0.210400	0.096700	0.106895
H58	H	0.226100	0.137700	0.008700	0.106895
H59	H	0.855300	0.115700	0.956000	0.106895
H60	H	0.789300	0.186800	0.045100	0.106895
H61	H	0.991900	0.284600	0.158600	0.148097
H62	H	0.852100	0.295800	0.130400	0.148097
H63	H	0.043100	0.016000	0.908000	0.148097
H64	H	0.184700	0.055200	0.917600	0.148097
H65	H	0.418800	0.641200	0.468900	0.106895
H66	H	0.493300	0.372800	0.435300	0.106895
H67	H	0.301000	0.475700	0.379200	0.145113
H68	H	0.353900	0.578600	0.374200	0.145113
H69	H	0.534000	0.156700	0.021600	0.106895
H70	H	0.408000	0.904700	0.071300	0.106895
H71	H	0.347900	0.047800	0.131100	0.148097
H72	H	0.411300	0.143900	0.114700	0.148097
H73	H	0.860800	0.370700	0.533600	0.106895
H74	H	0.797700	0.314400	0.439300	0.106895
H75	H	0.169500	0.313100	0.386100	0.106895
H76	H	0.232600	0.363700	0.480600	0.106895
H77	H	0.044100	0.469700	0.585800	0.148097
H78	H	0.186000	0.433700	0.573100	0.148097
H79	H	0.875700	0.221200	0.343400	0.148097
H80	H	0.010400	0.254300	0.317100	0.148097
H81	H	0.660600	0.289600	0.903300	0.106895
H82	H	0.726100	0.362300	0.991300	0.106895
H83	H	0.355300	0.384300	0.044000	0.106895
H84	H	0.289300	0.313200	0.954900	0.106895
H85	H	0.491900	0.215400	0.841400	0.148097
H86	H	0.352100	0.204200	0.869600	0.148097
H87	H	0.543100	0.484000	0.092000	0.148097
H88	H	0.684700	0.444800	0.082400	0.148097
H89	H	0.918800	0.858800	0.531100	0.106895
H90	H	0.993300	0.127200	0.564700	0.106895
H91	H	0.801000	0.024300	0.620800	0.145113
H92	H	0.853900	0.921400	0.625800	0.145113
H93	H	0.034000	0.343300	0.978400	0.106895
H94	H	0.908000	0.595300	0.928700	0.106895
H95	H	0.847900	0.452200	0.868900	0.148097
H96	H	0.911300	0.356100	0.885300	0.148097
C1	C	0.447600	0.875200	0.516600	0.123340
C2	C	0.576300	0.859000	0.504000	-0.128257
C3	C	0.614100	0.825100	0.447200	-0.128257
C4	C	0.523600	0.807100	0.402700	0.123340
C5	C	0.393500	0.823600	0.415800	-0.128257
C6	C	0.355900	0.855400	0.472100	-0.128257
C7	C	0.404400	0.914000	0.576800	-0.381854
C8	C	0.414100	0.850900	0.629800	0.786558
C9	C	0.565600	0.774200	0.340300	-0.382108
C10	C	0.633500	0.852400	0.308700	0.783446
C11	C	0.032600	0.794700	0.918700	0.123340
C12	C	0.902100	0.809100	0.931300	-0.128257
C13	C	0.862700	0.851900	0.984700	-0.128257
C14	C	0.949400	0.879100	0.028100	0.123340
C15	C	0.082300	0.865100	0.015700	-0.128257
C16	C	0.121900	0.822800	0.962000	-0.128257
C17	C	0.080000	0.749200	0.860400	-0.382108
C18	C	0.132500	0.818100	0.817500	0.783446
C19	C	0.906400	0.927000	0.086400	-0.381854
C20	C	0.921000	0.868800	0.142400	0.786558
C21	C	0.555600	0.493600	0.556900	0.121363
C22	C	0.549300	0.416300	0.518700	-0.128257
C23	C	0.505100	0.575300	0.538500	-0.128257
C24	C	0.620800	0.485800	0.619100	-0.384622
C25	C	0.523500	0.518800	0.668300	0.803615
C26	C	0.536700	0.961600	0.943500	0.123340
C27	C	0.480300	0.906500	0.986900	-0.128257
C28	C	0.555200	0.056600	0.957400	-0.128257
C29	C	0.571900	0.922700	0.882300	-0.382108
C30	C	0.466900	0.937300	0.835600	0.783446
C31	C	0.947600	0.624800	0.483400	0.123340
C32	C	0.076300	0.641000	0.496000	-0.128257
C33	C	0.114100	0.674900	0.552800	-0.128257
C34	C	0.023600	0.692900	0.597300	0.123340
C35	C	0.893500	0.676400	0.584200	-0.128257
C36	C	0.855900	0.644600	0.527900	-0.128257
C37	C	0.904400	0.586000	0.423200	-0.381854
C38	C	0.914100	0.649100	0.370200	0.786558
C39	C	0.065600	0.725800	0.659700	-0.382108
C40	C	0.133500	0.647600	0.691300	0.783446
C41	C	0.532600	0.705300	0.081300	0.123340
C42	C	0.402100	0.690900	0.068700	-0.128257
C43	C	0.362700	0.648100	0.015300	-0.128257
C44	C	0.449400	0.620900	0.971900	0.123340
C45	C	0.582300	0.634900	0.984300	-0.128257
C46	C	0.621900	0.677200	0.038000	-0.128257
C47	C	0.580000	0.750800	0.139600	-0.382108
C48	C	0.632500	0.681900	0.182500	0.783446
C49	C	0.406400	0.573000	0.913600	-0.381854
C50	C	0.421000	0.631200	0.857600	0.786558
C51	C	0.055600	0.006400	0.443100	0.121363
C52	C	0.049300	0.083700	0.481300	-0.128257
C53	C	0.005100	0.924700	0.461500	-0.128257
C54	C	0.120800	0.014200	0.380900	-0.384622
C55	C	0.023500	0.981200	0.331700	0.803615
C56	C	0.036700	0.538400	0.056500	0.123340
C57	C	0.980300	0.593500	0.013100	-0.128257
C58	C	0.055200	0.443400	0.042600	-0.128257
C59	C	0.071900	0.577300	0.117700	-0.382108
C60	C	0.966900	0.562700	0.164400	0.783446
C61	C	0.552400	0.124800	0.483400	0.123340
C62	C	0.423700	0.141000	0.496000	-0.128257
C63	C	0.385900	0.174900	0.552800	-0.128257
C64	C	0.476400	0.192900	0.597300	0.123340
C65	C	0.606500	0.176400	0.584200	-0.128257
C66	C	0.644100	0.144600	0.527900	-0.128257
C67	C	0.595600	0.086000	0.423200	-0.381854
C68	C	0.585900	0.149100	0.370200	0.786558
C69	C	0.434400	0.225800	0.659700	-0.382108
C70	C	0.366500	0.147600	0.691300	0.783446
C71	C	0.967400	0.205300	0.081300	0.123340
C72	C	0.097900	0.190900	0.068700	-0.128257
C73	C	0.137300	0.148100	0.015300	-0.128257
C74	C	0.050600	0.120900	0.971900	0.123340
C75	C	0.917700	0.134900	0.984300	-0.128257
C76	C	0.878100	0.177200	0.038000	-0.128257
C77	C	0.920000	0.250800	0.139600	-0.382108
C78	C	0.867500	0.181900	0.182500	0.783446
C79	C	0.093600	0.073000	0.913600	-0.381854
C80	C	0.079000	0.131200	0.857600	0.786558
C81	C	0.444400	0.506400	0.443100	0.121363
C82	C	0.450700	0.583700	0.481300	-0.128257
C83	C	0.494900	0.424700	0.461500	-0.128257
C84	C	0.379200	0.514200	0.380900	-0.384622
C85	C	0.476500	0.481200	0.331700	0.803615
C86	C	0.463300	0.038400	0.056500	0.123340
C87	C	0.519700	0.093500	0.013100	-0.128257
C88	C	0.444800	0.943400	0.042600	-0.128257
C89	C	0.428100	0.077300	0.117700	-0.382108
C90	C	0.533100	0.062700	0.164400	0.783446
C91	C	0.052400	0.375200	0.516600	0.123340
C92	C	0.923700	0.359000	0.504000	-0.128257
C93	C	0.885900	0.325100	0.447200	-0.128257
C94	C	0.976400	0.307100	0.402700	0.123340
C95	C	0.106500	0.323600	0.415800	-0.128257
C96	C	0.144100	0.355400	0.472100	-0.128257
C97	C	0.095600	0.414000	0.576800	-0.381854
C98	C	0.085900	0.350900	0.629800	0.786558
C99	C	0.934400	0.274200	0.340300	-0.382108
C100	C	0.866500	0.352400	0.308700	0.783446
C101	C	0.467400	0.294700	0.918700	0.123340
C102	C	0.597900	0.309100	0.931300	-0.128257
C103	C	0.637300	0.351900	0.984700	-0.128257
C104	C	0.550600	0.379100	0.028100	0.123340
C105	C	0.417700	0.365100	0.015700	-0.128257
C106	C	0.378100	0.322800	0.962000	-0.128257
C107	C	0.420000	0.249200	0.860400	-0.382108
C108	C	0.367500	0.318100	0.817500	0.783446
C109	C	0.593600	0.427000	0.086400	-0.381854
C110	C	0.579000	0.368800	0.142400	0.786558
C111	C	0.944400	0.993600	0.556900	0.121363
C112	C	0.950700	0.916300	0.518700	-0.128257
C113	C	0.994900	0.075300	0.538500	-0.128257
C114	C	0.879200	0.985800	0.619100	-0.384622
C115	C	0.976500	0.018800	0.668300	0.803615
C116	C	0.963300	0.461600	0.943500	0.123340
C117	C	0.019700	0.406500	0.986900	-0.128257
C118	C	0.944800	0.556600	0.957400	-0.128257
C119	C	0.928100	0.422700	0.882300	-0.382108
C120	C	0.033100	0.437300	0.835600	0.783446
O1	O	0.489300	0.781900	0.630400	-0.670092
O2	O	0.342400	0.868500	0.675200	-0.845843
O3	O	0.756400	0.856700	0.306800	-0.848228
O4	O	0.565400	0.915200	0.284600	-0.655631
O5	O	0.232500	0.799200	0.786000	-0.848228
O6	O	0.075500	0.894100	0.811200	-0.655631
O7	O	0.980100	0.794400	0.143300	-0.670092
O8	O	0.865800	0.899300	0.190900	-0.845843
O9	O	0.432800	0.466300	0.678900	-0.712379
O10	O	0.545700	0.594300	0.695900	-0.727933
O11	O	0.475700	0.896400	0.784900	-0.848228
O12	O	0.372500	0.990700	0.846800	-0.655631
O13	O	0.989300	0.718100	0.369600	-0.670092
O14	O	0.842400	0.631500	0.324800	-0.845843
O15	O	0.256400	0.643300	0.693200	-0.848228
O16	O	0.065400	0.584800	0.715400	-0.655631
O17	O	0.732500	0.700800	0.214000	-0.848228
O18	O	0.575500	0.605900	0.188800	-0.655631
O19	O	0.480100	0.705600	0.856700	-0.670092
O20	O	0.365800	0.600700	0.809100	-0.845843
O21	O	0.932800	0.033700	0.321100	-0.712379
O22	O	0.045700	0.905700	0.304100	-0.727933
O23	O	0.975700	0.603600	0.215100	-0.848228
O24	O	0.872500	0.509300	0.153200	-0.655631
O25	O	0.510700	0.218100	0.369600	-0.670092
O26	O	0.657600	0.131500	0.324800	-0.845843
O27	O	0.243600	0.143300	0.693200	-0.848228
O28	O	0.434600	0.084800	0.715400	-0.655631
O29	O	0.767500	0.200800	0.214000	-0.848228
O30	O	0.924500	0.105900	0.188800	-0.655631
O31	O	0.019900	0.205600	0.856700	-0.670092
O32	O	0.134200	0.100700	0.809100	-0.845843
O33	O	0.567200	0.533700	0.321100	-0.712379
O34	O	0.454300	0.405700	0.304100	-0.727933
O35	O	0.524300	0.103600	0.215100	-0.848228
O36	O	0.627500	0.009300	0.153200	-0.655631
O37	O	0.010700	0.281900	0.630400	-0.670092
O38	O	0.157600	0.368500	0.675200	-0.845843
O39	O	0.743600	0.356700	0.306800	-0.848228
O40	O	0.934600	0.415200	0.284600	-0.655631
O41	O	0.267500	0.299200	0.786000	-0.848228
O42	O	0.424500	0.394100	0.811200	-0.655631
O43	O	0.519900	0.294400	0.143300	-0.670092
O44	O	0.634200	0.399300	0.190900	-0.845843
O45	O	0.067200	0.966300	0.678900	-0.712379
O46	O	0.954300	0.094300	0.695900	-0.727933
O47	O	0.024300	0.396400	0.784900	-0.848228
O48	O	0.127500	0.490700	0.846800	-0.655631
