data_TUVDIX_clean_PM
_symmetry_space_group_name_H-M	'P1'
_cell_length_a	15.512000
_cell_length_b	15.512000
_cell_length_c	15.645000
_cell_angle_alpha	90.000000
_cell_angle_beta	90.000000
_cell_angle_gamma	120.000000
_symmetry_Int_Tables_number 1

loop_
_symmetry_equiv_pos_as_xyz
'x,y,z'

loop_
_atom_site_label
_atom_site_type_symbol
_atom_site_fract_x
_atom_site_fract_y
_atom_site_fract_z
_atom_site_charge
Pr1	Pr	0.333330	0.666660	0.750000	2.063773
Pr2	Pr	0.666670	0.333340	0.750000	2.063773
Pr3	Pr	0.666670	0.333340	0.250000	2.063773
Pr4	Pr	0.333330	0.666660	0.250000	2.063773
Mn1	Mn	0.500000	0.500000	0.000000	1.258435
Mn2	Mn	0.000000	0.500000	0.000000	1.258435
Mn3	Mn	0.500000	0.000000	0.000000	1.258435
Mn4	Mn	0.000000	0.500000	0.500000	1.258435
Mn5	Mn	0.500000	0.500000	0.500000	1.258435
Mn6	Mn	0.500000	0.000000	0.500000	1.258435
H1	H	0.232800	0.286300	0.841400	0.120699
H2	H	0.053500	0.767200	0.841400	0.120699
H3	H	0.713700	0.946500	0.841400	0.120699
H4	H	0.767200	0.713700	0.841400	0.120699
H5	H	0.946500	0.232800	0.841400	0.120699
H6	H	0.286300	0.053500	0.841400	0.120699
H7	H	0.946500	0.713700	0.658600	0.120699
H8	H	0.286300	0.232800	0.658600	0.120699
H9	H	0.767200	0.053500	0.658600	0.120699
H10	H	0.053500	0.286300	0.658600	0.120699
H11	H	0.713700	0.767200	0.658600	0.120699
H12	H	0.232800	0.946500	0.658600	0.120699
H13	H	0.767200	0.713700	0.158600	0.120699
H14	H	0.946500	0.232800	0.158600	0.120699
H15	H	0.286300	0.053500	0.158600	0.120699
H16	H	0.232800	0.286300	0.158600	0.120699
H17	H	0.053500	0.767200	0.158600	0.120699
H18	H	0.713700	0.946500	0.158600	0.120699
H19	H	0.053500	0.286300	0.341400	0.120699
H20	H	0.713700	0.767200	0.341400	0.120699
H21	H	0.232800	0.946500	0.341400	0.120699
H22	H	0.946500	0.713700	0.341400	0.120699
H23	H	0.286300	0.232800	0.341400	0.120699
H24	H	0.767200	0.053500	0.341400	0.120699
H25	H	0.100350	0.200700	0.750000	0.097891
H26	H	0.100350	0.899650	0.750000	0.097891
H27	H	0.799300	0.899650	0.750000	0.097891
H28	H	0.899650	0.799300	0.750000	0.097891
H29	H	0.899650	0.100350	0.750000	0.097891
H30	H	0.200700	0.100350	0.750000	0.097891
H31	H	0.899650	0.799300	0.250000	0.097891
H32	H	0.899650	0.100350	0.250000	0.097891
H33	H	0.200700	0.100350	0.250000	0.097891
H34	H	0.100350	0.200700	0.250000	0.097891
H35	H	0.100350	0.899650	0.250000	0.097891
H36	H	0.799300	0.899650	0.250000	0.097891
C1	C	0.263300	0.423600	0.803400	0.129454
C2	C	0.351200	0.487500	0.860600	0.663537
C3	C	0.213300	0.320400	0.804400	-0.115446
C4	C	0.160300	0.736700	0.803400	0.129454
C5	C	0.136300	0.648800	0.860600	0.663537
C6	C	0.107100	0.786700	0.804400	-0.115446
C7	C	0.576400	0.839700	0.803400	0.129454
C8	C	0.512500	0.863700	0.860600	0.663537
C9	C	0.679600	0.892900	0.804400	-0.115446
C10	C	0.736700	0.576400	0.803400	0.129454
C11	C	0.648800	0.512500	0.860600	0.663537
C12	C	0.786700	0.679600	0.804400	-0.115446
C13	C	0.839700	0.263300	0.803400	0.129454
C14	C	0.863700	0.351200	0.860600	0.663537
C15	C	0.892900	0.213300	0.804400	-0.115446
C16	C	0.423600	0.160300	0.803400	0.129454
C17	C	0.487500	0.136300	0.860600	0.663537
C18	C	0.320400	0.107100	0.804400	-0.115446
C19	C	0.839700	0.576400	0.696600	0.129454
C20	C	0.863700	0.512500	0.639400	0.663537
C21	C	0.892900	0.679600	0.695600	-0.115446
C22	C	0.423600	0.263300	0.696600	0.129454
C23	C	0.487500	0.351200	0.639400	0.663537
C24	C	0.320400	0.213300	0.695600	-0.115446
C25	C	0.736700	0.160300	0.696600	0.129454
C26	C	0.648800	0.136300	0.639400	0.663537
C27	C	0.786700	0.107100	0.695600	-0.115446
C28	C	0.160300	0.423600	0.696600	0.129454
C29	C	0.136300	0.487500	0.639400	0.663537
C30	C	0.107100	0.320400	0.695600	-0.115446
C31	C	0.576400	0.736700	0.696600	0.129454
C32	C	0.512500	0.648800	0.639400	0.663537
C33	C	0.679600	0.786700	0.695600	-0.115446
C34	C	0.263300	0.839700	0.696600	0.129454
C35	C	0.351200	0.863700	0.639400	0.663537
C36	C	0.213300	0.892900	0.695600	-0.115446
C37	C	0.736700	0.576400	0.196600	0.129454
C38	C	0.648800	0.512500	0.139400	0.663537
C39	C	0.786700	0.679600	0.195600	-0.115446
C40	C	0.839700	0.263300	0.196600	0.129454
C41	C	0.863700	0.351200	0.139400	0.663537
C42	C	0.892900	0.213300	0.195600	-0.115446
C43	C	0.423600	0.160300	0.196600	0.129454
C44	C	0.487500	0.136300	0.139400	0.663537
C45	C	0.320400	0.107100	0.195600	-0.115446
C46	C	0.263300	0.423600	0.196600	0.129454
C47	C	0.351200	0.487500	0.139400	0.663537
C48	C	0.213300	0.320400	0.195600	-0.115446
C49	C	0.160300	0.736700	0.196600	0.129454
C50	C	0.136300	0.648800	0.139400	0.663537
C51	C	0.107100	0.786700	0.195600	-0.115446
C52	C	0.576400	0.839700	0.196600	0.129454
C53	C	0.512500	0.863700	0.139400	0.663537
C54	C	0.679600	0.892900	0.195600	-0.115446
C55	C	0.160300	0.423600	0.303400	0.129454
C56	C	0.136300	0.487500	0.360600	0.663537
C57	C	0.107100	0.320400	0.304400	-0.115446
C58	C	0.576400	0.736700	0.303400	0.129454
C59	C	0.512500	0.648800	0.360600	0.663537
C60	C	0.679600	0.786700	0.304400	-0.115446
C61	C	0.263300	0.839700	0.303400	0.129454
C62	C	0.351200	0.863700	0.360600	0.663537
C63	C	0.213300	0.892900	0.304400	-0.115446
C64	C	0.839700	0.576400	0.303400	0.129454
C65	C	0.863700	0.512500	0.360600	0.663537
C66	C	0.892900	0.679600	0.304400	-0.115446
C67	C	0.423600	0.263300	0.303400	0.129454
C68	C	0.487500	0.351200	0.360600	0.663537
C69	C	0.320400	0.213300	0.304400	-0.115446
C70	C	0.736700	0.160300	0.303400	0.129454
C71	C	0.648800	0.136300	0.360600	0.663537
C72	C	0.786700	0.107100	0.304400	-0.115446
C73	C	0.134950	0.269900	0.750000	-0.036947
C74	C	0.134950	0.865050	0.750000	-0.036947
C75	C	0.730100	0.865050	0.750000	-0.036947
C76	C	0.865050	0.730100	0.750000	-0.036947
C77	C	0.865050	0.134950	0.750000	-0.036947
C78	C	0.269900	0.134950	0.750000	-0.036947
C79	C	0.865050	0.730100	0.250000	-0.036947
C80	C	0.865050	0.134950	0.250000	-0.036947
C81	C	0.269900	0.134950	0.250000	-0.036947
C82	C	0.134950	0.269900	0.250000	-0.036947
C83	C	0.134950	0.865050	0.250000	-0.036947
C84	C	0.730100	0.865050	0.250000	-0.036947
N1	N	0.237200	0.474400	0.750000	-0.400558
N2	N	0.237200	0.762800	0.750000	-0.400558
N3	N	0.525600	0.762800	0.750000	-0.400558
N4	N	0.762800	0.525600	0.750000	-0.400558
N5	N	0.762800	0.237200	0.750000	-0.400558
N6	N	0.474400	0.237200	0.750000	-0.400558
N7	N	0.762800	0.525600	0.250000	-0.400558
N8	N	0.762800	0.237200	0.250000	-0.400558
N9	N	0.474400	0.237200	0.250000	-0.400558
N10	N	0.237200	0.474400	0.250000	-0.400558
N11	N	0.237200	0.762800	0.250000	-0.400558
N12	N	0.525600	0.762800	0.250000	-0.400558
O1	O	0.383200	0.444100	0.904900	-0.623362
O2	O	0.383900	0.580700	0.857300	-0.663646
O3	O	0.060900	0.616800	0.904900	-0.623362
O4	O	0.196800	0.616100	0.857300	-0.663646
O5	O	0.555900	0.939100	0.904900	-0.623362
O6	O	0.419300	0.803200	0.857300	-0.663646
O7	O	0.616800	0.555900	0.904900	-0.623362
O8	O	0.616100	0.419300	0.857300	-0.663646
O9	O	0.939100	0.383200	0.904900	-0.623362
O10	O	0.803200	0.383900	0.857300	-0.663646
O11	O	0.444100	0.060900	0.904900	-0.623362
O12	O	0.580700	0.196800	0.857300	-0.663646
O13	O	0.939100	0.555900	0.595100	-0.623362
O14	O	0.803200	0.419300	0.642700	-0.663646
O15	O	0.444100	0.383200	0.595100	-0.623362
O16	O	0.580700	0.383900	0.642700	-0.663646
O17	O	0.616800	0.060900	0.595100	-0.623362
O18	O	0.616100	0.196800	0.642700	-0.663646
O19	O	0.060900	0.444100	0.595100	-0.623362
O20	O	0.196800	0.580700	0.642700	-0.663646
O21	O	0.555900	0.616800	0.595100	-0.623362
O22	O	0.419300	0.616100	0.642700	-0.663646
O23	O	0.383200	0.939100	0.595100	-0.623362
O24	O	0.383900	0.803200	0.642700	-0.663646
O25	O	0.616800	0.555900	0.095100	-0.623362
O26	O	0.616100	0.419300	0.142700	-0.663646
O27	O	0.939100	0.383200	0.095100	-0.623362
O28	O	0.803200	0.383900	0.142700	-0.663646
O29	O	0.444100	0.060900	0.095100	-0.623362
O30	O	0.580700	0.196800	0.142700	-0.663646
O31	O	0.383200	0.444100	0.095100	-0.623362
O32	O	0.383900	0.580700	0.142700	-0.663646
O33	O	0.060900	0.616800	0.095100	-0.623362
O34	O	0.196800	0.616100	0.142700	-0.663646
O35	O	0.555900	0.939100	0.095100	-0.623362
O36	O	0.419300	0.803200	0.142700	-0.663646
O37	O	0.060900	0.444100	0.404900	-0.623362
O38	O	0.196800	0.580700	0.357300	-0.663646
O39	O	0.555900	0.616800	0.404900	-0.623362
O40	O	0.419300	0.616100	0.357300	-0.663646
O41	O	0.383200	0.939100	0.404900	-0.623362
O42	O	0.383900	0.803200	0.357300	-0.663646
O43	O	0.939100	0.555900	0.404900	-0.623362
O44	O	0.803200	0.419300	0.357300	-0.663646
O45	O	0.444100	0.383200	0.404900	-0.623362
O46	O	0.580700	0.383900	0.357300	-0.663646
O47	O	0.616800	0.060900	0.404900	-0.623362
O48	O	0.616100	0.196800	0.357300	-0.663646
