data_UCEXOQ_clean_PM
_symmetry_space_group_name_H-M	'P1'
_cell_length_a	10.709800
_cell_length_b	11.244900
_cell_length_c	26.066000
_cell_angle_alpha	84.997998
_cell_angle_beta	88.134998
_cell_angle_gamma	62.659999
_symmetry_Int_Tables_number 1

loop_
_symmetry_equiv_pos_as_xyz
'x,y,z'

loop_
_atom_site_label
_atom_site_type_symbol
_atom_site_fract_x
_atom_site_fract_y
_atom_site_fract_z
_atom_site_charge
Er1	Er	0.411530	0.617170	0.899730	1.475677
Er2	Er	0.344260	0.845900	0.741710	1.571125
Er3	Er	0.381330	0.034850	0.560250	1.517126
Er4	Er	0.588470	0.382830	0.100270	1.475677
Er5	Er	0.655740	0.154100	0.258290	1.571125
Er6	Er	0.618670	0.965150	0.439750	1.517126
H1	H	0.541500	0.390100	0.425200	0.110932
H2	H	0.452000	0.407700	0.575600	0.110932
H3	H	0.433300	0.119700	0.777900	0.110932
H4	H	0.461100	0.281500	0.818700	0.110932
H5	H	0.336100	0.358000	0.646100	0.110932
H6	H	0.365100	0.519200	0.686500	0.110932
H7	H	0.037600	0.007600	0.549200	0.110932
H8	H	0.823400	0.020200	0.527100	0.111475
H9	H	0.073700	0.746800	0.670100	0.110932
H10	H	0.855200	0.766100	0.650600	0.111475
H11	H	0.813400	0.666300	0.903600	0.110932
H12	H	0.016400	0.689300	0.896800	0.110932
H13	H	0.711800	0.823400	0.757800	0.110932
H14	H	0.921400	0.833400	0.749600	0.110932
H15	H	0.594800	0.779000	0.034800	0.110932
H16	H	0.359400	0.066000	0.927300	0.110932
H17	H	0.055700	0.655400	0.030900	0.111475
H18	H	0.131200	0.372400	0.934700	0.111475
H19	H	0.458500	0.609900	0.574800	0.110932
H20	H	0.548000	0.592300	0.424400	0.110932
H21	H	0.566700	0.880300	0.222100	0.110932
H22	H	0.538900	0.718500	0.181300	0.110932
H23	H	0.663900	0.642000	0.353900	0.110932
H24	H	0.634900	0.480800	0.313500	0.110932
H25	H	0.962400	0.992400	0.450800	0.110932
H26	H	0.176600	0.979800	0.472900	0.111475
H27	H	0.926300	0.253200	0.329900	0.110932
H28	H	0.144800	0.233900	0.349400	0.111475
H29	H	0.186600	0.333700	0.096400	0.110932
H30	H	0.983600	0.310700	0.103200	0.110932
H31	H	0.288200	0.176600	0.242200	0.110932
H32	H	0.078600	0.166600	0.250400	0.110932
H33	H	0.405200	0.221000	0.965200	0.110932
H34	H	0.640600	0.934000	0.072700	0.110932
H35	H	0.944300	0.344600	0.969100	0.111475
H36	H	0.868800	0.627600	0.065300	0.111475
C1	C	0.487600	0.247300	0.500950	0.694610
C2	C	0.494600	0.378600	0.501040	-0.107772
C3	C	0.524600	0.434100	0.455220	-0.051987
C4	C	0.471200	0.445100	0.545030	-0.051987
C5	C	0.369200	0.117300	0.680270	0.709605
C6	C	0.384000	0.222200	0.707520	-0.111493
C7	C	0.420300	0.199400	0.759540	-0.051987
C8	C	0.437000	0.296500	0.783970	-0.051987
C9	C	0.362400	0.342200	0.680710	-0.051987
C10	C	0.379400	0.439200	0.704850	-0.051987
C11	C	0.417900	0.416100	0.756670	-0.111493
C12	C	0.440000	0.519100	0.782780	0.706168
C13	C	0.210400	0.876800	0.627250	0.709605
C14	C	0.077100	0.877100	0.611390	-0.111493
C15	C	0.001600	0.958100	0.569290	-0.048931
C16	C	0.872300	0.967200	0.556190	-0.050192
C17	C	0.022600	0.803000	0.641940	-0.048931
C18	C	0.892400	0.813800	0.630010	-0.050192
C19	C	0.817400	0.895800	0.587330	-0.095078
C20	C	0.673700	0.917600	0.574850	0.653116
C21	C	0.609000	0.725100	0.835060	0.706168
C22	C	0.742300	0.740600	0.831420	-0.111493
C23	C	0.834300	0.700900	0.872670	-0.051987
C24	C	0.957600	0.712300	0.868220	-0.051987
C25	C	0.774700	0.793000	0.785410	-0.051987
C26	C	0.899800	0.800000	0.780670	-0.051987
C27	C	0.994600	0.757300	0.822010	-0.111493
C28	C	0.130900	0.765700	0.817170	0.706168
C29	C	0.439100	0.808400	0.953380	0.686253
C30	C	0.470600	0.908000	0.977310	-0.107772
C31	C	0.556300	0.867700	0.020840	-0.051987
C32	C	0.415800	0.039300	0.956680	-0.051987
C33	C	0.234000	0.535500	0.956060	0.613038
C34	C	0.114900	0.515000	0.980580	-0.078781
C35	C	0.034000	0.591900	0.018580	-0.049165
C36	C	0.079200	0.423300	0.961150	-0.049165
C37	C	0.512400	0.752700	0.499050	0.694610
C38	C	0.505400	0.621400	0.498960	-0.107772
C39	C	0.475400	0.565900	0.544780	-0.051987
C40	C	0.528800	0.554900	0.454970	-0.051987
C41	C	0.630800	0.882700	0.319730	0.709605
C42	C	0.616000	0.777800	0.292480	-0.111493
C43	C	0.579700	0.800600	0.240460	-0.051987
C44	C	0.563000	0.703500	0.216030	-0.051987
C45	C	0.637600	0.657800	0.319290	-0.051987
C46	C	0.620600	0.560800	0.295150	-0.051987
C47	C	0.582100	0.583900	0.243330	-0.111493
C48	C	0.560000	0.480900	0.217220	0.706168
C49	C	0.789600	0.123200	0.372750	0.709605
C50	C	0.922900	0.122900	0.388610	-0.111493
C51	C	0.998400	0.041900	0.430710	-0.048931
C52	C	0.127700	0.032800	0.443810	-0.050192
C53	C	0.977400	0.197000	0.358060	-0.048931
C54	C	0.107600	0.186200	0.369990	-0.050192
C55	C	0.182600	0.104200	0.412670	-0.095078
C56	C	0.326300	0.082400	0.425150	0.653116
C57	C	0.391000	0.274900	0.164940	0.706168
C58	C	0.257700	0.259400	0.168580	-0.111493
C59	C	0.165700	0.299100	0.127330	-0.051987
C60	C	0.042400	0.287700	0.131780	-0.051987
C61	C	0.225300	0.207000	0.214590	-0.051987
C62	C	0.100200	0.200000	0.219330	-0.051987
C63	C	0.005400	0.242700	0.177990	-0.111493
C64	C	0.869100	0.234300	0.182830	0.706168
C65	C	0.560900	0.191600	0.046620	0.686253
C66	C	0.529400	0.092000	0.022690	-0.107772
C67	C	0.443700	0.132300	0.979160	-0.051987
C68	C	0.584200	0.960700	0.043320	-0.051987
C69	C	0.766000	0.464500	0.043940	0.613038
C70	C	0.885100	0.485000	0.019420	-0.078781
C71	C	0.966000	0.408100	0.981420	-0.049165
C72	C	0.920800	0.576700	0.038850	-0.049165
O1	O	0.426670	0.217940	0.538080	-0.606993
O2	O	0.542820	0.179620	0.464570	-0.606993
O3	O	0.335160	0.143820	0.633470	-0.608620
O4	O	0.394940	0.007480	0.705750	-0.649783
O5	O	0.435750	0.616750	0.755080	-0.649783
O6	O	0.462790	0.498420	0.830050	-0.589511
O7	O	0.246020	0.953560	0.600230	-0.608620
O8	O	0.274250	0.805150	0.665740	-0.649783
O9	O	0.629490	0.952250	0.529380	-0.687471
O10	O	0.594630	0.911100	0.610530	-0.539749
O11	O	0.512040	0.794850	0.804280	-0.649783
O12	O	0.603940	0.644810	0.870150	-0.589511
O13	O	0.161670	0.801520	0.774090	-0.649783
O14	O	0.206960	0.733880	0.856690	-0.589511
O15	O	0.356060	0.844850	0.915690	-0.586779
O16	O	0.497520	0.686910	0.971740	-0.586779
O17	O	0.256610	0.629120	0.971920	-0.515435
O18	O	0.302390	0.468810	0.920980	-0.515435
O19	O	0.573330	0.782060	0.461920	-0.606993
O20	O	0.457180	0.820380	0.535430	-0.606993
O21	O	0.664840	0.856180	0.366530	-0.608620
O22	O	0.605060	0.992520	0.294250	-0.649783
O23	O	0.564250	0.383250	0.244920	-0.649783
O24	O	0.537210	0.501580	0.169950	-0.589511
O25	O	0.753980	0.046440	0.399770	-0.608620
O26	O	0.725750	0.194850	0.334260	-0.649783
O27	O	0.370510	0.047750	0.470620	-0.687471
O28	O	0.405370	0.088900	0.389470	-0.539749
O29	O	0.487960	0.205150	0.195720	-0.649783
O30	O	0.396060	0.355190	0.129850	-0.589511
O31	O	0.838330	0.198480	0.225910	-0.649783
O32	O	0.793040	0.266120	0.143310	-0.589511
O33	O	0.643940	0.155150	0.084310	-0.586779
O34	O	0.502480	0.313090	0.028260	-0.586779
O35	O	0.743390	0.370880	0.028080	-0.515435
O36	O	0.697610	0.531190	0.079020	-0.515435
