data_UPOVOL_clean_PM
_symmetry_space_group_name_H-M	'P1'
_cell_length_a	7.852899
_cell_length_b	12.186000
_cell_length_c	13.221700
_cell_angle_alpha	112.155999
_cell_angle_beta	105.456998
_cell_angle_gamma	91.541003
_symmetry_Int_Tables_number 1

loop_
_symmetry_equiv_pos_as_xyz
'x,y,z'

loop_
_atom_site_label
_atom_site_type_symbol
_atom_site_fract_x
_atom_site_fract_y
_atom_site_fract_z
_atom_site_charge
Er1	Er	0.749700	0.981450	0.010740	1.400892
Er2	Er	0.250300	0.018550	0.989260	1.400892
H1	H	0.076800	0.153700	0.415300	0.095167
H2	H	0.068000	0.275000	0.400000	0.095167
H3	H	0.261900	0.228700	0.292500	0.149435
H4	H	0.297700	0.114200	0.318200	0.149435
H5	H	0.593900	0.115500	0.681900	0.095167
H6	H	0.694800	0.232200	0.788000	0.095167
H7	H	0.448100	0.242100	0.858400	0.149435
H8	H	0.351200	0.123400	0.753500	0.149435
H9	H	0.619900	0.605100	0.778400	0.095167
H10	H	0.511300	0.612500	0.663300	0.095167
H11	H	0.346400	0.595900	0.823200	0.147912
H12	H	0.250900	0.618500	0.714100	0.147912
H13	H	0.923200	0.846300	0.584700	0.095167
H14	H	0.932000	0.725000	0.600000	0.095167
H15	H	0.738100	0.771300	0.707500	0.149435
H16	H	0.702300	0.885800	0.681800	0.149435
H17	H	0.406100	0.884500	0.318100	0.095167
H18	H	0.305200	0.767800	0.212000	0.095167
H19	H	0.551900	0.757900	0.141600	0.149435
H20	H	0.648800	0.876600	0.246500	0.149435
H21	H	0.380100	0.394900	0.221600	0.095167
H22	H	0.488700	0.387500	0.336700	0.095167
H23	H	0.653600	0.404100	0.176800	0.147912
H24	H	0.749100	0.381500	0.285900	0.147912
C1	C	0.339600	0.398700	0.558700	0.617179
C2	C	0.366200	0.205200	0.572500	0.617179
C3	C	0.537000	0.387100	0.730000	0.617179
C4	C	0.146100	0.217000	0.409600	0.088957
C5	C	0.208100	0.164800	0.305900	-0.387105
C6	C	0.053500	0.092400	0.203100	0.768249
C7	C	0.577800	0.190900	0.737000	0.088957
C8	C	0.467000	0.166600	0.804900	-0.387105
C9	C	0.554000	0.094700	0.870100	0.768249
C10	C	0.504700	0.581900	0.720200	0.084499
C11	C	0.362900	0.635000	0.774100	-0.374919
C12	C	0.406100	0.768400	0.843600	0.752730
C13	C	0.660400	0.601300	0.441300	0.617179
C14	C	0.633800	0.794800	0.427500	0.617179
C15	C	0.463000	0.612900	0.270000	0.617179
C16	C	0.853900	0.783000	0.590400	0.088957
C17	C	0.791900	0.835200	0.694100	-0.387105
C18	C	0.946500	0.907600	0.796900	0.768249
C19	C	0.422200	0.809100	0.263000	0.088957
C20	C	0.533000	0.833400	0.195100	-0.387105
C21	C	0.446000	0.905300	0.129900	0.768249
C22	C	0.495300	0.418100	0.279800	0.084499
C23	C	0.637100	0.365000	0.225900	-0.374919
C24	C	0.593900	0.231600	0.156400	0.752730
N1	N	0.463100	0.450300	0.665900	-0.291256
N2	N	0.291800	0.275800	0.516800	-0.291256
N3	N	0.493900	0.264100	0.675900	-0.291256
N4	N	0.536900	0.549700	0.334100	-0.291256
N5	N	0.708200	0.724200	0.483200	-0.291256
N6	N	0.506100	0.735900	0.324100	-0.291256
O1	O	0.923700	0.042500	0.214300	-0.612436
O2	O	0.055400	0.086400	0.104000	-0.711248
O3	O	0.557700	0.819000	0.860700	-0.625940
O4	O	0.282400	0.818600	0.880400	-0.625940
O5	O	0.464500	0.050000	0.914800	-0.711248
O6	O	0.714100	0.080900	0.881100	-0.612436
O7	O	0.637500	0.436400	0.826500	-0.448832
O8	O	0.275200	0.457200	0.505700	-0.448832
O9	O	0.322800	0.097800	0.531000	-0.448832
O10	O	0.076300	0.957500	0.785700	-0.612436
O11	O	0.944600	0.913600	0.896000	-0.711248
O12	O	0.442300	0.181000	0.139300	-0.625940
O13	O	0.717600	0.181400	0.119600	-0.625940
O14	O	0.535500	0.950000	0.085200	-0.711248
O15	O	0.285900	0.919100	0.118900	-0.612436
O16	O	0.362500	0.563600	0.173500	-0.448832
O17	O	0.724800	0.542800	0.494300	-0.448832
O18	O	0.677200	0.902200	0.469000	-0.448832
