data_UZIJUJ_clean_PM
_symmetry_space_group_name_H-M	'P1'
_cell_length_a	11.440000
_cell_length_b	12.288000
_cell_length_c	36.854000
_cell_angle_alpha	90.000000
_cell_angle_beta	90.000000
_cell_angle_gamma	117.642002
_symmetry_Int_Tables_number 1

loop_
_symmetry_equiv_pos_as_xyz
'x,y,z'

loop_
_atom_site_label
_atom_site_type_symbol
_atom_site_fract_x
_atom_site_fract_y
_atom_site_fract_z
_atom_site_charge
Ce1	Ce	0.130230	0.629990	0.536490	2.249571
Ce2	Ce	0.369770	0.370010	0.036490	2.249571
Ce3	Ce	0.869770	0.370010	0.463510	2.249571
Ce4	Ce	0.630230	0.629990	0.963510	2.249571
H1	H	0.451700	0.450600	0.171700	0.098722
H2	H	0.526800	0.182600	0.135300	0.098722
H3	H	0.575300	0.147800	0.193700	0.125291
H4	H	0.501200	0.416400	0.229900	0.125291
H5	H	0.541200	0.292500	0.271000	0.287118
H6	H	0.811200	0.067700	0.405000	0.287118
H7	H	0.454700	0.297400	0.370400	0.288030
H8	H	0.254000	0.273400	0.392400	0.125291
H9	H	0.686000	0.045900	0.300300	0.103918
H10	H	0.642600	0.113700	0.404900	0.103918
H11	H	0.020300	0.923800	0.477900	0.098722
H12	H	0.589500	0.312300	0.324800	0.103918
H13	H	0.952000	0.048300	0.447200	0.125291
H14	H	0.788800	0.640800	0.415800	0.098722
H15	H	0.720300	0.764200	0.384400	0.125291
H16	H	0.478300	0.577300	0.474800	0.098722
H17	H	0.583000	0.480300	0.445900	0.125291
H18	H	0.146800	0.362900	0.425400	0.098722
H19	H	0.048300	0.549400	0.671700	0.098722
H20	H	0.973200	0.817400	0.635300	0.098722
H21	H	0.924700	0.852200	0.693700	0.125291
H22	H	0.998800	0.583600	0.729900	0.125291
H23	H	0.958800	0.707500	0.771000	0.287118
H24	H	0.688800	0.932300	0.905000	0.287118
H25	H	0.045300	0.702600	0.870400	0.288030
H26	H	0.246000	0.726600	0.892400	0.125291
H27	H	0.814000	0.954100	0.800300	0.103918
H28	H	0.857400	0.886300	0.904900	0.103918
H29	H	0.479700	0.076200	0.977900	0.098722
H30	H	0.910500	0.687700	0.824800	0.103918
H31	H	0.548000	0.951700	0.947200	0.125291
H32	H	0.711200	0.359200	0.915800	0.098722
H33	H	0.779700	0.235800	0.884400	0.125291
H34	H	0.021700	0.422700	0.974800	0.098722
H35	H	0.917000	0.519700	0.945900	0.125291
H36	H	0.353200	0.637100	0.925400	0.098722
H37	H	0.548300	0.549400	0.828300	0.098722
H38	H	0.473200	0.817400	0.864700	0.098722
H39	H	0.424700	0.852200	0.806300	0.125291
H40	H	0.498800	0.583600	0.770100	0.125291
H41	H	0.458800	0.707500	0.729000	0.287118
H42	H	0.188800	0.932300	0.595000	0.287118
H43	H	0.545300	0.702600	0.629600	0.288030
H44	H	0.746000	0.726600	0.607600	0.125291
H45	H	0.314000	0.954100	0.699700	0.103918
H46	H	0.357400	0.886300	0.595100	0.103918
H47	H	0.979700	0.076200	0.522100	0.098722
H48	H	0.410500	0.687700	0.675200	0.103918
H49	H	0.048000	0.951700	0.552800	0.125291
H50	H	0.211200	0.359200	0.584200	0.098722
H51	H	0.279700	0.235800	0.615600	0.125291
H52	H	0.521700	0.422700	0.525200	0.098722
H53	H	0.417000	0.519700	0.554100	0.125291
H54	H	0.853200	0.637100	0.574600	0.098722
H55	H	0.951700	0.450600	0.328300	0.098722
H56	H	0.026800	0.182600	0.364700	0.098722
H57	H	0.075300	0.147800	0.306300	0.125291
H58	H	0.001200	0.416400	0.270100	0.125291
H59	H	0.041200	0.292500	0.229000	0.287118
H60	H	0.311200	0.067700	0.095000	0.287118
H61	H	0.954700	0.297400	0.129600	0.288030
H62	H	0.754000	0.273400	0.107600	0.125291
H63	H	0.186000	0.045900	0.199700	0.103918
H64	H	0.142600	0.113700	0.095100	0.103918
H65	H	0.520300	0.923800	0.022100	0.098722
H66	H	0.089500	0.312300	0.175200	0.103918
H67	H	0.452000	0.048300	0.052800	0.125291
H68	H	0.288800	0.640800	0.084200	0.098722
H69	H	0.220300	0.764200	0.115600	0.125291
H70	H	0.978300	0.577300	0.025200	0.098722
H71	H	0.083000	0.480300	0.054100	0.125291
H72	H	0.646800	0.362900	0.074600	0.098722
C1	C	0.447200	0.338900	0.109670	0.745092
C2	C	0.482300	0.318200	0.147170	-0.167002
C3	C	0.476000	0.389300	0.175990	0.010475
C4	C	0.520700	0.229500	0.154320	0.010475
C5	C	0.550300	0.208700	0.189360	-0.208552
C6	C	0.505900	0.368900	0.210830	-0.208552
C7	C	0.542600	0.278500	0.217620	0.222642
C8	C	0.595600	0.302000	0.398050	0.605165
C9	C	0.432000	0.376900	0.413900	0.218278
C10	C	0.300900	0.336500	0.408700	-0.208552
C11	C	0.680500	0.073400	0.353880	-0.148256
C12	C	0.670200	0.093100	0.317470	-0.010853
C13	C	0.301800	0.485000	0.452010	-0.165670
C14	C	0.234100	0.546400	0.472170	0.732066
C15	C	0.910200	0.768600	0.450240	-0.167002
C16	C	0.951700	0.683400	0.469400	0.745092
C17	C	0.622500	0.233200	0.369010	-0.157436
C18	C	0.647700	0.135400	0.380600	-0.013000
C19	C	0.959200	0.891100	0.459190	0.010475
C20	C	0.612500	0.252300	0.332090	-0.013000
C21	C	0.828300	0.918700	0.412740	0.222642
C22	C	0.918500	0.966100	0.440710	-0.208552
C23	C	0.636300	0.183300	0.306130	-0.148256
C24	C	0.821900	0.723000	0.422300	0.010475
C25	C	0.780300	0.796900	0.403300	-0.208552
C26	C	0.431400	0.516100	0.458000	0.008337
C27	C	0.714900	0.973900	0.364250	0.527960
C28	C	0.496400	0.460300	0.440000	-0.208552
C29	C	0.629600	0.198600	0.266050	0.527960
C30	C	0.237000	0.391800	0.428600	0.008337
C31	C	0.052800	0.661100	0.609670	0.745092
C32	C	0.017700	0.681800	0.647170	-0.167002
C33	C	0.024000	0.610700	0.675990	0.010475
C34	C	0.979300	0.770500	0.654320	0.010475
C35	C	0.949700	0.791300	0.689360	-0.208552
C36	C	0.994100	0.631100	0.710830	-0.208552
C37	C	0.957400	0.721500	0.717620	0.222642
C38	C	0.904400	0.698000	0.898050	0.605165
C39	C	0.068000	0.623100	0.913900	0.218278
C40	C	0.199100	0.663500	0.908700	-0.208552
C41	C	0.819500	0.926600	0.853880	-0.148256
C42	C	0.829800	0.906900	0.817470	-0.010853
C43	C	0.198200	0.515000	0.952010	-0.165670
C44	C	0.265900	0.453600	0.972170	0.732066
C45	C	0.589800	0.231400	0.950240	-0.167002
C46	C	0.548300	0.316600	0.969400	0.745092
C47	C	0.877500	0.766800	0.869010	-0.157436
C48	C	0.852300	0.864600	0.880600	-0.013000
C49	C	0.540800	0.108900	0.959190	0.010475
C50	C	0.887500	0.747700	0.832090	-0.013000
C51	C	0.671700	0.081300	0.912740	0.222642
C52	C	0.581500	0.033900	0.940710	-0.208552
C53	C	0.863700	0.816700	0.806130	-0.148256
C54	C	0.678100	0.277000	0.922300	0.010475
C55	C	0.719700	0.203100	0.903300	-0.208552
C56	C	0.068600	0.483900	0.958000	0.008337
C57	C	0.785100	0.026100	0.864250	0.527960
C58	C	0.003600	0.539700	0.940000	-0.208552
C59	C	0.870400	0.801400	0.766050	0.527960
C60	C	0.263000	0.608200	0.928600	0.008337
C61	C	0.552800	0.661100	0.890330	0.745092
C62	C	0.517700	0.681800	0.852830	-0.167002
C63	C	0.524000	0.610700	0.824010	0.010475
C64	C	0.479300	0.770500	0.845680	0.010475
C65	C	0.449700	0.791300	0.810640	-0.208552
C66	C	0.494100	0.631100	0.789170	-0.208552
C67	C	0.457400	0.721500	0.782380	0.222642
C68	C	0.404400	0.698000	0.601950	0.605165
C69	C	0.568000	0.623100	0.586100	0.218278
C70	C	0.699100	0.663500	0.591300	-0.208552
C71	C	0.319500	0.926600	0.646120	-0.148256
C72	C	0.329800	0.906900	0.682530	-0.010853
C73	C	0.698200	0.515000	0.547990	-0.165670
C74	C	0.765900	0.453600	0.527830	0.732066
C75	C	0.089800	0.231400	0.549760	-0.167002
C76	C	0.048300	0.316600	0.530600	0.745092
C77	C	0.377500	0.766800	0.630990	-0.157436
C78	C	0.352300	0.864600	0.619400	-0.013000
C79	C	0.040800	0.108900	0.540810	0.010475
C80	C	0.387500	0.747700	0.667910	-0.013000
C81	C	0.171700	0.081300	0.587260	0.222642
C82	C	0.081500	0.033900	0.559290	-0.208552
C83	C	0.363700	0.816700	0.693870	-0.148256
C84	C	0.178100	0.277000	0.577700	0.010475
C85	C	0.219700	0.203100	0.596700	-0.208552
C86	C	0.568600	0.483900	0.542000	0.008337
C87	C	0.285100	0.026100	0.635750	0.527960
C88	C	0.503600	0.539700	0.560000	-0.208552
C89	C	0.370400	0.801400	0.733950	0.527960
C90	C	0.763000	0.608200	0.571400	0.008337
C91	C	0.947200	0.338900	0.390330	0.745092
C92	C	0.982300	0.318200	0.352830	-0.167002
C93	C	0.976000	0.389300	0.324010	0.010475
C94	C	0.020700	0.229500	0.345680	0.010475
C95	C	0.050300	0.208700	0.310640	-0.208552
C96	C	0.005900	0.368900	0.289170	-0.208552
C97	C	0.042600	0.278500	0.282380	0.222642
C98	C	0.095600	0.302000	0.101950	0.605165
C99	C	0.932000	0.376900	0.086100	0.218278
C100	C	0.800900	0.336500	0.091300	-0.208552
C101	C	0.180500	0.073400	0.146120	-0.148256
C102	C	0.170200	0.093100	0.182530	-0.010853
C103	C	0.801800	0.485000	0.047990	-0.165670
C104	C	0.734100	0.546400	0.027830	0.732066
C105	C	0.410200	0.768600	0.049760	-0.167002
C106	C	0.451700	0.683400	0.030600	0.745092
C107	C	0.122500	0.233200	0.130990	-0.157436
C108	C	0.147700	0.135400	0.119400	-0.013000
C109	C	0.459200	0.891100	0.040810	0.010475
C110	C	0.112500	0.252300	0.167910	-0.013000
C111	C	0.328300	0.918700	0.087260	0.222642
C112	C	0.418500	0.966100	0.059290	-0.208552
C113	C	0.136300	0.183300	0.193870	-0.148256
C114	C	0.321900	0.723000	0.077700	0.010475
C115	C	0.280300	0.796900	0.096700	-0.208552
C116	C	0.931400	0.516100	0.042000	0.008337
C117	C	0.214900	0.973900	0.135750	0.527960
C118	C	0.996400	0.460300	0.060000	-0.208552
C119	C	0.129600	0.198600	0.233950	0.527960
C120	C	0.737000	0.391800	0.071400	0.008337
N1	N	0.568500	0.260000	0.254570	-0.408790
N2	N	0.787500	0.997200	0.395090	-0.408790
N3	N	0.491000	0.321600	0.391310	-0.405785
N4	N	0.931500	0.740000	0.754570	-0.408790
N5	N	0.712500	0.002800	0.895090	-0.408790
N6	N	0.009000	0.678400	0.891310	-0.405785
N7	N	0.431500	0.740000	0.745430	-0.408790
N8	N	0.212500	0.002800	0.604910	-0.408790
N9	N	0.509000	0.678400	0.608690	-0.405785
N10	N	0.068500	0.260000	0.245430	-0.408790
N11	N	0.287500	0.997200	0.104910	-0.408790
N12	N	0.991000	0.321600	0.108690	-0.405785
O1	O	0.038700	0.726200	0.493670	-0.716079
O2	O	0.658300	0.331700	0.426670	-0.592925
O3	O	0.435600	0.432700	0.102430	-0.716079
O4	O	0.424800	0.255400	0.085760	-0.716079
O5	O	0.894600	0.574100	0.458710	-0.716079
O6	O	0.111100	0.507900	0.468370	-0.822494
O7	O	0.686700	0.162100	0.245400	-0.487718
O8	O	0.300500	0.632500	0.493220	-0.652819
O9	O	0.678400	0.881800	0.346100	-0.487718
O10	O	0.461300	0.273800	0.993670	-0.716079
O11	O	0.841700	0.668300	0.926670	-0.592925
O12	O	0.064400	0.567300	0.602430	-0.716079
O13	O	0.075200	0.744600	0.585760	-0.716079
O14	O	0.605400	0.425900	0.958710	-0.716079
O15	O	0.388900	0.492100	0.968370	-0.822494
O16	O	0.813300	0.837900	0.745400	-0.487718
O17	O	0.199500	0.367500	0.993220	-0.652819
O18	O	0.821600	0.118200	0.846100	-0.487718
O19	O	0.961300	0.273800	0.506330	-0.716079
O20	O	0.341700	0.668300	0.573330	-0.592925
O21	O	0.564400	0.567300	0.897570	-0.716079
O22	O	0.575200	0.744600	0.914240	-0.716079
O23	O	0.105400	0.425900	0.541290	-0.716079
O24	O	0.888900	0.492100	0.531630	-0.822494
O25	O	0.313300	0.837900	0.754600	-0.487718
O26	O	0.699500	0.367500	0.506780	-0.652819
O27	O	0.321600	0.118200	0.653900	-0.487718
O28	O	0.538700	0.726200	0.006330	-0.716079
O29	O	0.158300	0.331700	0.073330	-0.592925
O30	O	0.935600	0.432700	0.397570	-0.716079
O31	O	0.924800	0.255400	0.414240	-0.716079
O32	O	0.394600	0.574100	0.041290	-0.716079
O33	O	0.611100	0.507900	0.031630	-0.822494
O34	O	0.186700	0.162100	0.254600	-0.487718
O35	O	0.800500	0.632500	0.006780	-0.652819
O36	O	0.178400	0.881800	0.153900	-0.487718
