data_VEDVUW_clean_PM
_symmetry_space_group_name_H-M	'P1'
_cell_length_a	8.808400
_cell_length_b	13.091200
_cell_length_c	13.091200
_cell_angle_alpha	86.111299
_cell_angle_beta	70.565999
_cell_angle_gamma	70.565701
_symmetry_Int_Tables_number 1

loop_
_symmetry_equiv_pos_as_xyz
'x,y,z'

loop_
_atom_site_label
_atom_site_type_symbol
_atom_site_fract_x
_atom_site_fract_y
_atom_site_fract_z
_atom_site_charge
Ag1	Ag	0.829060	0.420540	0.363200	-0.334893
Ag2	Ag	0.670940	0.636800	0.579460	-0.334893
Ag3	Ag	0.170940	0.579460	0.636800	-0.334893
Ag4	Ag	0.329060	0.363200	0.420540	-0.334893
H1	H	0.316500	0.158500	0.355300	0.107541
H2	H	0.409500	0.982000	0.279400	0.099519
H3	H	0.383100	0.953000	0.114200	0.099173
H4	H	0.266300	0.100800	0.021200	0.099519
H5	H	0.167400	0.277900	0.097100	0.107541
H6	H	0.141800	0.447500	0.135500	0.095789
H7	H	0.145300	0.530900	0.217500	0.095789
H8	H	0.440200	0.357400	0.098800	0.073564
H9	H	0.441500	0.445600	0.177400	0.073564
H10	H	0.345600	0.499900	0.985500	0.077510
H11	H	0.354000	0.586200	0.062800	0.077510
H12	H	0.183500	0.644700	0.841500	0.107541
H13	H	0.090500	0.720600	0.018000	0.099519
H14	H	0.116900	0.885800	0.047000	0.099173
H15	H	0.233700	0.978800	0.899200	0.099519
H16	H	0.332600	0.902900	0.722100	0.107541
H17	H	0.358200	0.864500	0.552500	0.095789
H18	H	0.354700	0.782500	0.469100	0.095789
H19	H	0.059800	0.901200	0.642600	0.073564
H20	H	0.058500	0.822600	0.554400	0.073564
H21	H	0.154400	0.014500	0.500100	0.077510
H22	H	0.146000	0.937200	0.413800	0.077510
H23	H	0.683500	0.841500	0.644700	0.107541
H24	H	0.590500	0.018000	0.720600	0.099519
H25	H	0.616900	0.047000	0.885800	0.099173
H26	H	0.733700	0.899200	0.978800	0.099519
H27	H	0.832600	0.722100	0.902900	0.107541
H28	H	0.858200	0.552500	0.864500	0.095789
H29	H	0.854700	0.469100	0.782500	0.095789
H30	H	0.559800	0.642600	0.901200	0.073564
H31	H	0.558500	0.554400	0.822600	0.073564
H32	H	0.654400	0.500100	0.014500	0.077510
H33	H	0.646000	0.413800	0.937200	0.077510
H34	H	0.816500	0.355300	0.158500	0.107541
H35	H	0.909500	0.279400	0.982000	0.099519
H36	H	0.883100	0.114200	0.953000	0.099173
H37	H	0.766300	0.021200	0.100800	0.099519
H38	H	0.667400	0.097100	0.277900	0.107541
H39	H	0.641800	0.135500	0.447500	0.095789
H40	H	0.645300	0.217500	0.530900	0.095789
H41	H	0.940200	0.098800	0.357400	0.073564
H42	H	0.941500	0.177400	0.445600	0.073564
H43	H	0.845600	0.985500	0.499900	0.077510
H44	H	0.854000	0.062800	0.586200	0.077510
C1	C	0.232300	0.234000	0.233400	0.010386
C2	C	0.304900	0.146900	0.287900	-0.114003
C3	C	0.360600	0.042000	0.242200	-0.068387
C4	C	0.345500	0.024800	0.144400	-0.082845
C5	C	0.275000	0.112700	0.089500	-0.068387
C6	C	0.216900	0.217900	0.134100	-0.114003
C7	C	0.197200	0.455000	0.187800	-0.171944
C8	C	0.385300	0.433700	0.127300	-0.096534
C9	C	0.406600	0.510100	0.033300	-0.121568
C10	C	0.267700	0.766600	0.766000	0.010386
C11	C	0.195100	0.712100	0.853100	-0.114003
C12	C	0.139400	0.757800	0.958000	-0.068387
C13	C	0.154500	0.855600	0.975200	-0.082845
C14	C	0.225000	0.910500	0.887300	-0.068387
C15	C	0.283100	0.865900	0.782100	-0.114003
C16	C	0.302800	0.812200	0.545000	-0.171944
C17	C	0.114700	0.872700	0.566300	-0.096534
C18	C	0.093400	0.966700	0.489900	-0.121568
C19	C	0.767700	0.766000	0.766600	0.010386
C20	C	0.695100	0.853100	0.712100	-0.114003
C21	C	0.639400	0.958000	0.757800	-0.068387
C22	C	0.654500	0.975200	0.855600	-0.082845
C23	C	0.725000	0.887300	0.910500	-0.068387
C24	C	0.783100	0.782100	0.865900	-0.114003
C25	C	0.802800	0.545000	0.812200	-0.171944
C26	C	0.614700	0.566300	0.872700	-0.096534
C27	C	0.593400	0.489900	0.966700	-0.121568
C28	C	0.732300	0.233400	0.234000	0.010386
C29	C	0.804900	0.287900	0.146900	-0.114003
C30	C	0.860600	0.242200	0.042000	-0.068387
C31	C	0.845500	0.144400	0.024800	-0.082845
C32	C	0.775000	0.089500	0.112700	-0.068387
C33	C	0.716900	0.134100	0.217900	-0.114003
C34	C	0.697200	0.187800	0.455000	-0.171944
C35	C	0.885300	0.127300	0.433700	-0.096534
C36	C	0.906600	0.033300	0.510100	-0.121568
S1	S	0.151480	0.365740	0.298300	0.155159
S2	S	0.348520	0.701700	0.634260	0.155159
S3	S	0.848520	0.634260	0.701700	0.155159
S4	S	0.651480	0.298300	0.365740	0.155159
