data_VOCXUH_clean_PM
_symmetry_space_group_name_H-M	'P1'
_cell_length_a	11.389000
_cell_length_b	16.673600
_cell_length_c	16.673600
_cell_angle_alpha	120.000000
_cell_angle_beta	90.000000
_cell_angle_gamma	90.000000
_symmetry_Int_Tables_number 1

loop_
_symmetry_equiv_pos_as_xyz
'x,y,z'

loop_
_atom_site_label
_atom_site_type_symbol
_atom_site_fract_x
_atom_site_fract_y
_atom_site_fract_z
_atom_site_charge
Co1	Co	0.000000	0.677650	0.677650	0.968930
Co2	Co	0.000000	0.000000	0.322350	0.968930
Co3	Co	0.000000	0.322350	0.000000	0.968930
H1	H	0.591800	0.607200	0.744600	0.135382
H2	H	0.793800	0.598900	0.729400	0.085703
H3	H	0.591800	0.137400	0.392800	0.135382
H4	H	0.793800	0.130500	0.401100	0.085703
H5	H	0.591800	0.255400	0.862600	0.135382
H6	H	0.793800	0.270600	0.869500	0.085703
H7	H	0.408200	0.607200	0.744600	0.135382
H8	H	0.206200	0.598900	0.729400	0.085703
H9	H	0.408200	0.137400	0.392800	0.135382
H10	H	0.206200	0.130500	0.401100	0.085703
H11	H	0.408200	0.255400	0.862600	0.135382
H12	H	0.206200	0.270600	0.869500	0.085703
H13	H	0.408200	0.862600	0.255400	0.135382
H14	H	0.206200	0.869500	0.270600	0.085703
H15	H	0.408200	0.744600	0.607200	0.135382
H16	H	0.206200	0.729400	0.598900	0.085703
H17	H	0.408200	0.392800	0.137400	0.135382
H18	H	0.206200	0.401100	0.130500	0.085703
H19	H	0.591800	0.862600	0.255400	0.135382
H20	H	0.793800	0.869500	0.270600	0.085703
H21	H	0.591800	0.744600	0.607200	0.135382
H22	H	0.793800	0.729400	0.598900	0.085703
H23	H	0.591800	0.392800	0.137400	0.135382
H24	H	0.793800	0.401100	0.130500	0.085703
H25	H	0.000000	0.284400	0.509700	0.108453
H26	H	0.000000	0.225300	0.715600	0.108453
H27	H	0.000000	0.490300	0.774700	0.108453
H28	H	0.000000	0.774700	0.490300	0.108453
H29	H	0.000000	0.509700	0.284400	0.108453
H30	H	0.000000	0.715600	0.225300	0.108453
H31	H	0.000000	0.000000	0.861700	0.108440
H32	H	0.000000	0.861700	0.000000	0.108440
H33	H	0.000000	0.138300	0.138300	0.108440
C1	C	0.629400	0.634000	0.714200	-0.181559
C2	C	0.752400	0.633000	0.708500	0.190572
C3	C	0.629400	0.080200	0.366000	-0.181559
C4	C	0.752400	0.075500	0.367000	0.190572
C5	C	0.629400	0.285800	0.919800	-0.181559
C6	C	0.752400	0.291500	0.924500	0.190572
C7	C	0.370600	0.634000	0.714200	-0.181559
C8	C	0.247600	0.633000	0.708500	0.190572
C9	C	0.370600	0.080200	0.366000	-0.181559
C10	C	0.247600	0.075500	0.367000	0.190572
C11	C	0.370600	0.285800	0.919800	-0.181559
C12	C	0.247600	0.291500	0.924500	0.190572
C13	C	0.370600	0.919800	0.285800	-0.181559
C14	C	0.247600	0.924500	0.291500	0.190572
C15	C	0.370600	0.714200	0.634000	-0.181559
C16	C	0.247600	0.708500	0.633000	0.190572
C17	C	0.370600	0.366000	0.080200	-0.181559
C18	C	0.247600	0.367000	0.075500	0.190572
C19	C	0.629400	0.919800	0.285800	-0.181559
C20	C	0.752400	0.924500	0.291500	0.190572
C21	C	0.629400	0.714200	0.634000	-0.181559
C22	C	0.752400	0.708500	0.633000	0.190572
C23	C	0.629400	0.366000	0.080200	-0.181559
C24	C	0.752400	0.367000	0.075500	0.190572
C25	C	0.000000	0.916100	0.916100	-0.148583
C26	C	0.000000	0.826400	0.826400	0.630005
C27	C	0.000000	0.000000	0.083900	-0.148583
C28	C	0.000000	0.000000	0.173600	0.630005
C29	C	0.000000	0.083900	0.000000	-0.148583
C30	C	0.000000	0.173600	0.000000	0.630005
C31	C	0.000000	0.398200	0.637300	-0.149105
C32	C	0.000000	0.304100	0.572700	0.012571
C33	C	0.000000	0.467800	0.605500	0.635735
C34	C	0.000000	0.239100	0.601800	-0.149105
C35	C	0.000000	0.268600	0.695900	0.012571
C36	C	0.000000	0.137700	0.532200	0.635735
C37	C	0.000000	0.362700	0.760900	-0.149105
C38	C	0.000000	0.427300	0.731400	0.012571
C39	C	0.000000	0.394500	0.862300	0.635735
C40	C	0.000000	0.760900	0.362700	-0.149105
C41	C	0.000000	0.731400	0.427300	0.012571
C42	C	0.000000	0.862300	0.394500	0.635735
C43	C	0.000000	0.637300	0.398200	-0.149105
C44	C	0.000000	0.572700	0.304100	0.012571
C45	C	0.000000	0.605500	0.467800	0.635735
C46	C	0.000000	0.601800	0.239100	-0.149105
C47	C	0.000000	0.695900	0.268600	0.012571
C48	C	0.000000	0.532200	0.137700	0.635735
C49	C	0.000000	0.000000	0.917400	0.026326
C50	C	0.000000	0.917400	0.000000	0.026326
C51	C	0.000000	0.082600	0.082600	0.026326
C52	C	0.565300	0.675700	0.675700	0.099662
C53	C	0.565300	0.000000	0.324300	0.099662
C54	C	0.565300	0.324300	0.000000	0.099662
C55	C	0.434700	0.675700	0.675700	0.099662
C56	C	0.434700	0.000000	0.324300	0.099662
C57	C	0.434700	0.324300	0.000000	0.099662
N1	N	0.811100	0.675700	0.675700	-0.305867
N2	N	0.811100	0.000000	0.324300	-0.305867
N3	N	0.811100	0.324300	0.000000	-0.305867
N4	N	0.188900	0.675700	0.675700	-0.305867
N5	N	0.188900	0.000000	0.324300	-0.305867
N6	N	0.188900	0.324300	0.000000	-0.305867
O1	O	0.000000	0.550700	0.665400	-0.573672
O2	O	0.000000	0.827500	0.751300	-0.533246
O3	O	0.000000	0.437000	0.520800	-0.547286
O4	O	0.000000	0.114700	0.449300	-0.573672
O5	O	0.000000	0.923800	0.172500	-0.533246
O6	O	0.000000	0.083800	0.563000	-0.547286
O7	O	0.000000	0.334600	0.885300	-0.573672
O8	O	0.000000	0.248700	0.076200	-0.533246
O9	O	0.000000	0.479200	0.916200	-0.547286
O10	O	0.000000	0.885300	0.334600	-0.573672
O11	O	0.000000	0.076200	0.248700	-0.533246
O12	O	0.000000	0.916200	0.479200	-0.547286
O13	O	0.000000	0.665400	0.550700	-0.573672
O14	O	0.000000	0.751300	0.827500	-0.533246
O15	O	0.000000	0.520800	0.437000	-0.547286
O16	O	0.000000	0.449300	0.114700	-0.573672
O17	O	0.000000	0.172500	0.923800	-0.533246
O18	O	0.000000	0.563000	0.083800	-0.547286
