data_VOTMAS_clean_PM
_symmetry_space_group_name_H-M	'P1'
_cell_length_a	11.357400
_cell_length_b	11.357400
_cell_length_c	16.028000
_cell_angle_alpha	85.207901
_cell_angle_beta	85.207901
_cell_angle_gamma	61.037200
_symmetry_Int_Tables_number 1

loop_
_symmetry_equiv_pos_as_xyz
'x,y,z'

loop_
_atom_site_label
_atom_site_type_symbol
_atom_site_fract_x
_atom_site_fract_y
_atom_site_fract_z
_atom_site_charge
Sr1	Sr	0.057850	0.660770	0.986880	1.674327
Sr2	Sr	0.339230	0.942150	0.513120	1.674327
Sr3	Sr	0.942150	0.339230	0.013120	1.674327
Sr4	Sr	0.660770	0.057850	0.486880	1.674327
Ca1	Ca	0.880440	0.312240	0.748270	1.334543
Ca2	Ca	0.687760	0.119560	0.751730	1.334543
Ca3	Ca	0.119560	0.687760	0.251730	1.334543
Ca4	Ca	0.312240	0.880440	0.248270	1.334543
H1	H	0.761900	0.636900	0.554300	0.080357
H2	H	0.753200	0.654600	0.660700	0.080357
H3	H	0.975100	0.597900	0.608600	0.080357
H4	H	0.983900	0.461900	0.562500	0.080357
H5	H	0.701800	0.463000	0.518100	0.130165
H6	H	0.847000	0.375800	0.521100	0.130165
H7	H	0.560100	0.500100	0.659300	0.126493
H8	H	0.547300	0.646500	0.633900	0.126493
H9	H	0.201700	0.388700	0.652800	0.127904
H10	H	0.181600	0.293000	0.730900	0.127904
H11	H	0.069200	0.561000	0.751800	0.129442
H12	H	0.901700	0.600500	0.779600	0.129442
H13	H	0.363100	0.238100	0.945700	0.080357
H14	H	0.345400	0.246800	0.839300	0.080357
H15	H	0.402100	0.024900	0.891400	0.080357
H16	H	0.538100	0.016100	0.937500	0.080357
H17	H	0.537000	0.298200	0.981900	0.130165
H18	H	0.624200	0.153000	0.978900	0.130165
H19	H	0.499900	0.439900	0.840700	0.126493
H20	H	0.353500	0.452700	0.866100	0.126493
H21	H	0.611300	0.798300	0.847200	0.127904
H22	H	0.707000	0.818400	0.769100	0.127904
H23	H	0.439000	0.930800	0.748200	0.129442
H24	H	0.399500	0.098300	0.720400	0.129442
H25	H	0.238100	0.363100	0.445700	0.080357
H26	H	0.246800	0.345400	0.339300	0.080357
H27	H	0.024900	0.402100	0.391400	0.080357
H28	H	0.016100	0.538100	0.437500	0.080357
H29	H	0.298200	0.537000	0.481900	0.130165
H30	H	0.153000	0.624200	0.478900	0.130165
H31	H	0.439900	0.499900	0.340700	0.126493
H32	H	0.452700	0.353500	0.366100	0.126493
H33	H	0.798300	0.611300	0.347200	0.127904
H34	H	0.818400	0.707000	0.269100	0.127904
H35	H	0.930800	0.439000	0.248200	0.129442
H36	H	0.098300	0.399500	0.220400	0.129442
H37	H	0.636900	0.761900	0.054300	0.080357
H38	H	0.654600	0.753200	0.160700	0.080357
H39	H	0.597900	0.975100	0.108600	0.080357
H40	H	0.461900	0.983900	0.062500	0.080357
H41	H	0.463000	0.701800	0.018100	0.130165
H42	H	0.375800	0.847000	0.021100	0.130165
H43	H	0.500100	0.560100	0.159300	0.126493
H44	H	0.646500	0.547300	0.133900	0.126493
H45	H	0.388700	0.201700	0.152800	0.127904
H46	H	0.293000	0.181600	0.230900	0.127904
H47	H	0.561000	0.069200	0.251800	0.129442
H48	H	0.600500	0.901700	0.279600	0.129442
C1	C	0.795400	0.592000	0.618800	-0.023986
C2	C	0.944300	0.532100	0.618600	-0.023986
C3	C	0.748700	0.290500	0.582900	0.770885
C4	C	0.759100	0.418100	0.559800	-0.216158
C5	C	0.609800	0.566800	0.662900	-0.225173
C6	C	0.589900	0.599300	0.754400	0.691708
C7	C	0.142300	0.343500	0.674700	-0.220929
C8	C	0.143500	0.239300	0.620400	0.758295
C9	C	0.000400	0.522400	0.765500	-0.213561
C10	C	0.021000	0.441400	0.848300	0.798382
C11	C	0.408000	0.204600	0.881200	-0.023986
C12	C	0.467900	0.055700	0.881400	-0.023986
C13	C	0.709500	0.251300	0.917100	0.770885
C14	C	0.581900	0.240900	0.940200	-0.216158
C15	C	0.433200	0.390200	0.837100	-0.225173
C16	C	0.400700	0.410100	0.745600	0.691708
C17	C	0.656500	0.857700	0.825300	-0.220929
C18	C	0.760700	0.856500	0.879600	0.758295
C19	C	0.477600	0.999600	0.734500	-0.213561
C20	C	0.558600	0.979000	0.651700	0.798382
C21	C	0.204600	0.408000	0.381200	-0.023986
C22	C	0.055700	0.467900	0.381400	-0.023986
C23	C	0.251300	0.709500	0.417100	0.770885
C24	C	0.240900	0.581900	0.440200	-0.216158
C25	C	0.390200	0.433200	0.337100	-0.225173
C26	C	0.410100	0.400700	0.245600	0.691708
C27	C	0.857700	0.656500	0.325300	-0.220929
C28	C	0.856500	0.760700	0.379600	0.758295
C29	C	0.999600	0.477600	0.234500	-0.213561
C30	C	0.979000	0.558600	0.151700	0.798382
C31	C	0.592000	0.795400	0.118800	-0.023986
C32	C	0.532100	0.944300	0.118600	-0.023986
C33	C	0.290500	0.748700	0.082900	0.770885
C34	C	0.418100	0.759100	0.059800	-0.216158
C35	C	0.566800	0.609800	0.162900	-0.225173
C36	C	0.599300	0.589900	0.254400	0.691708
C37	C	0.343500	0.142300	0.174700	-0.220929
C38	C	0.239300	0.143500	0.120400	0.758295
C39	C	0.522400	0.000400	0.265500	-0.213561
C40	C	0.441400	0.021000	0.348300	0.798382
N1	N	0.746000	0.492200	0.633300	-0.218145
N2	N	0.003300	0.446100	0.695300	-0.221148
N3	N	0.507800	0.254000	0.866700	-0.218145
N4	N	0.553900	0.996700	0.804700	-0.221148
N5	N	0.254000	0.507800	0.366700	-0.218145
N6	N	0.996700	0.553900	0.304700	-0.221148
N7	N	0.492200	0.746000	0.133300	-0.218145
N8	N	0.446100	0.003300	0.195300	-0.221148
O1	O	0.764300	0.246100	0.658500	-0.808821
O2	O	0.727300	0.237100	0.525400	-0.758425
O3	O	0.686600	0.526800	0.799500	-0.711437
O4	O	0.480700	0.697300	0.776600	-0.631059
O5	O	0.042300	0.221900	0.626200	-0.692092
O6	O	0.247000	0.174600	0.574500	-0.795698
O7	O	0.992600	0.348000	0.854200	-0.866661
O8	O	0.059700	0.475100	0.907900	-0.750295
O9	O	0.753900	0.235700	0.841500	-0.808821
O10	O	0.762900	0.272700	0.974600	-0.758425
O11	O	0.473200	0.313400	0.700500	-0.711437
O12	O	0.302700	0.519300	0.723400	-0.631059
O13	O	0.778100	0.957700	0.873800	-0.692092
O14	O	0.825400	0.753000	0.925500	-0.795698
O15	O	0.652000	0.007400	0.645800	-0.866661
O16	O	0.524900	0.940300	0.592100	-0.750295
O17	O	0.235700	0.753900	0.341500	-0.808821
O18	O	0.272700	0.762900	0.474600	-0.758425
O19	O	0.313400	0.473200	0.200500	-0.711437
O20	O	0.519300	0.302700	0.223400	-0.631059
O21	O	0.957700	0.778100	0.373800	-0.692092
O22	O	0.753000	0.825400	0.425500	-0.795698
O23	O	0.007400	0.652000	0.145800	-0.866661
O24	O	0.940300	0.524900	0.092100	-0.750295
O25	O	0.246100	0.764300	0.158500	-0.808821
O26	O	0.237100	0.727300	0.025400	-0.758425
O27	O	0.526800	0.686600	0.299500	-0.711437
O28	O	0.697300	0.480700	0.276600	-0.631059
O29	O	0.221900	0.042300	0.126200	-0.692092
O30	O	0.174600	0.247000	0.074500	-0.795698
O31	O	0.348000	0.992600	0.354200	-0.866661
O32	O	0.475100	0.059700	0.407900	-0.750295
