data_VURYIR_clean_PM
_symmetry_space_group_name_H-M	'P1'
_cell_length_a	4.713000
_cell_length_b	11.101000
_cell_length_c	26.797000
_cell_angle_alpha	90.000000
_cell_angle_beta	90.000000
_cell_angle_gamma	96.520001
_symmetry_Int_Tables_number 1

loop_
_symmetry_equiv_pos_as_xyz
'x,y,z'

loop_
_atom_site_label
_atom_site_type_symbol
_atom_site_fract_x
_atom_site_fract_y
_atom_site_fract_z
_atom_site_charge
Cu1	Cu	0.388000	0.120000	0.819400	0.778330
Cu2	Cu	0.612000	0.380000	0.319400	0.778330
Cu3	Cu	0.612000	0.880000	0.180600	0.778330
Cu4	Cu	0.388000	0.620000	0.680600	0.778330
H1	H	0.214000	0.036300	0.708700	0.102528
H2	H	0.375900	0.135300	0.637400	0.093864
H3	H	0.079900	0.209300	0.895200	0.087470
H4	H	0.408600	0.898100	0.891700	0.087470
H5	H	0.392800	0.761600	0.962100	0.103387
H6	H	0.864700	0.276900	0.964500	0.103387
H7	H	0.786000	0.463700	0.208700	0.102528
H8	H	0.624100	0.364700	0.137400	0.093864
H9	H	0.920100	0.290700	0.395200	0.087470
H10	H	0.591400	0.601900	0.391700	0.087470
H11	H	0.607200	0.738400	0.462100	0.103387
H12	H	0.135300	0.223100	0.464500	0.103387
H13	H	0.786000	0.963700	0.291300	0.102528
H14	H	0.624100	0.864700	0.362600	0.093864
H15	H	0.920100	0.790700	0.104800	0.087470
H16	H	0.591400	0.101900	0.108300	0.087470
H17	H	0.607200	0.238400	0.037900	0.103387
H18	H	0.135300	0.723100	0.035500	0.103387
H19	H	0.214000	0.536300	0.791300	0.102528
H20	H	0.375900	0.635300	0.862600	0.093864
H21	H	0.079900	0.709300	0.604800	0.087470
H22	H	0.408600	0.398100	0.608300	0.087470
H23	H	0.392800	0.261600	0.537900	0.103387
H24	H	0.864700	0.776900	0.535500	0.103387
C1	C	0.650900	0.320800	0.802500	0.629780
C2	C	0.586300	0.268700	0.752400	0.049383
C3	C	0.334600	0.110900	0.710000	0.091924
C4	C	0.433400	0.169700	0.668800	0.118809
C5	C	0.685200	0.323500	0.710400	0.094329
C6	C	0.868400	0.442300	0.705000	0.609612
C7	C	0.113000	0.136100	0.911400	0.136620
C8	C	0.305900	0.953300	0.909400	0.136620
C9	C	0.214500	0.924900	0.955800	-0.025653
C10	C	0.013900	0.114900	0.957900	-0.025653
C11	C	0.063100	0.007800	0.981200	0.039086
C12	C	0.272900	0.815600	0.976400	-0.084249
C13	C	0.866300	0.200900	0.980700	-0.084249
C14	C	0.349100	0.179200	0.302500	0.629780
C15	C	0.413700	0.231300	0.252400	0.049383
C16	C	0.665400	0.389100	0.210000	0.091924
C17	C	0.566600	0.330300	0.168800	0.118809
C18	C	0.314800	0.176500	0.210400	0.094329
C19	C	0.131600	0.057700	0.205000	0.609612
C20	C	0.887000	0.363900	0.411400	0.136620
C21	C	0.694100	0.546700	0.409400	0.136620
C22	C	0.785500	0.575100	0.455800	-0.025653
C23	C	0.986100	0.385100	0.457900	-0.025653
C24	C	0.936900	0.492200	0.481200	0.039086
C25	C	0.727100	0.684400	0.476400	-0.084249
C26	C	0.133700	0.299100	0.480700	-0.084249
C27	C	0.349100	0.679200	0.197500	0.629780
C28	C	0.413700	0.731300	0.247600	0.049383
C29	C	0.665400	0.889100	0.290000	0.091924
C30	C	0.566600	0.830300	0.331200	0.118809
C31	C	0.314800	0.676500	0.289600	0.094329
C32	C	0.131600	0.557700	0.295000	0.609612
C33	C	0.887000	0.863900	0.088600	0.136620
C34	C	0.694100	0.046700	0.090600	0.136620
C35	C	0.785500	0.075100	0.044200	-0.025653
C36	C	0.986100	0.885100	0.042100	-0.025653
C37	C	0.936900	0.992200	0.018800	0.039086
C38	C	0.727100	0.184400	0.023600	-0.084249
C39	C	0.133700	0.799100	0.019300	-0.084249
C40	C	0.650900	0.820800	0.697500	0.629780
C41	C	0.586300	0.768700	0.747600	0.049383
C42	C	0.334600	0.610900	0.790000	0.091924
C43	C	0.433400	0.669700	0.831200	0.118809
C44	C	0.685200	0.823500	0.789600	0.094329
C45	C	0.868400	0.942300	0.795000	0.609612
C46	C	0.113000	0.636100	0.588600	0.136620
C47	C	0.305900	0.453300	0.590600	0.136620
C48	C	0.214500	0.424900	0.544200	-0.025653
C49	C	0.013900	0.614900	0.542100	-0.025653
C50	C	0.063100	0.507800	0.518800	0.039086
C51	C	0.272900	0.315600	0.523600	-0.084249
C52	C	0.866300	0.700900	0.519300	-0.084249
N1	N	0.416000	0.163500	0.752200	-0.268907
N2	N	0.605800	0.272500	0.668800	-0.358292
N3	N	0.256700	0.057000	0.887400	-0.284199
N4	N	0.584000	0.336500	0.252200	-0.268907
N5	N	0.394200	0.227500	0.168800	-0.358292
N6	N	0.743300	0.443000	0.387400	-0.284199
N7	N	0.584000	0.836500	0.247800	-0.268907
N8	N	0.394200	0.727500	0.331200	-0.358292
N9	N	0.743300	0.943000	0.112600	-0.284199
N10	N	0.416000	0.663500	0.747800	-0.268907
N11	N	0.605800	0.772500	0.831200	-0.358292
N12	N	0.256700	0.557000	0.612600	-0.284199
O1	O	0.533000	0.258300	0.835200	-0.548710
O2	O	0.789000	0.420400	0.806600	-0.508404
O3	O	0.119000	0.488000	0.712000	-0.537143
O4	O	0.755000	0.534100	0.694300	-0.537143
O5	O	0.467000	0.241700	0.335200	-0.548710
O6	O	0.211000	0.079600	0.306600	-0.508404
O7	O	0.881000	0.012000	0.212000	-0.537143
O8	O	0.245000	0.965900	0.194300	-0.537143
O9	O	0.467000	0.741700	0.164800	-0.548710
O10	O	0.211000	0.579600	0.193400	-0.508404
O11	O	0.881000	0.512000	0.288000	-0.537143
O12	O	0.245000	0.465900	0.305700	-0.537143
O13	O	0.533000	0.758300	0.664800	-0.548710
O14	O	0.789000	0.920400	0.693400	-0.508404
O15	O	0.119000	0.988000	0.788000	-0.537143
O16	O	0.755000	0.034100	0.805700	-0.537143
