data_WAVWEW_clean_PM
_symmetry_space_group_name_H-M	'P1'
_cell_length_a	6.783000
_cell_length_b	9.394000
_cell_length_c	18.974000
_cell_angle_alpha	90.000000
_cell_angle_beta	90.000000
_cell_angle_gamma	90.000000
_symmetry_Int_Tables_number 1

loop_
_symmetry_equiv_pos_as_xyz
'x,y,z'

loop_
_atom_site_label
_atom_site_type_symbol
_atom_site_fract_x
_atom_site_fract_y
_atom_site_fract_z
_atom_site_charge
Ba1	Ba	0.750000	0.972940	0.750000	1.703745
Ba2	Ba	0.250000	0.527060	0.250000	1.703745
Ba3	Ba	0.250000	0.027060	0.250000	1.703745
Ba4	Ba	0.750000	0.472940	0.750000	1.703745
Co1	Co	0.500000	0.000000	0.500000	1.101738
Co2	Co	0.000000	0.000000	0.000000	1.101738
Co3	Co	0.000000	0.500000	0.500000	1.101738
Co4	Co	0.500000	0.500000	0.000000	1.101738
H1	H	0.645400	0.400100	0.584500	0.162334
H2	H	0.436200	0.338000	0.569700	0.162334
H3	H	0.854600	0.400100	0.915500	0.162334
H4	H	0.063800	0.338000	0.930300	0.162334
H5	H	0.145400	0.099900	0.415500	0.162334
H6	H	0.936200	0.162000	0.430300	0.162334
H7	H	0.354600	0.099900	0.084500	0.162334
H8	H	0.563800	0.162000	0.069700	0.162334
H9	H	0.354600	0.599900	0.415500	0.162334
H10	H	0.563800	0.662000	0.430300	0.162334
H11	H	0.145400	0.599900	0.084500	0.162334
H12	H	0.936200	0.662000	0.069700	0.162334
H13	H	0.854600	0.900100	0.584500	0.162334
H14	H	0.063800	0.838000	0.569700	0.162334
H15	H	0.645400	0.900100	0.915500	0.162334
H16	H	0.436200	0.838000	0.930300	0.162334
C1	C	0.618700	0.194500	0.615700	0.874627
C2	C	0.576000	0.317400	0.566500	-0.615983
C3	C	0.626700	0.303200	0.489700	0.760062
C4	C	0.881300	0.194500	0.884300	0.874627
C5	C	0.924000	0.317400	0.933500	-0.615983
C6	C	0.873300	0.303200	0.010300	0.760062
C7	C	0.118700	0.305500	0.384300	0.874627
C8	C	0.076000	0.182600	0.433500	-0.615983
C9	C	0.126700	0.196800	0.510300	0.760062
C10	C	0.381300	0.305500	0.115700	0.874627
C11	C	0.424000	0.182600	0.066500	-0.615983
C12	C	0.373300	0.196800	0.989700	0.760062
C13	C	0.381300	0.805500	0.384300	0.874627
C14	C	0.424000	0.682600	0.433500	-0.615983
C15	C	0.373300	0.696800	0.510300	0.760062
C16	C	0.118700	0.805500	0.115700	0.874627
C17	C	0.076000	0.682600	0.066500	-0.615983
C18	C	0.126700	0.696800	0.989700	0.760062
C19	C	0.881300	0.694500	0.615700	0.874627
C20	C	0.924000	0.817400	0.566500	-0.615983
C21	C	0.873300	0.803200	0.489700	0.760062
C22	C	0.618700	0.694500	0.884300	0.874627
C23	C	0.576000	0.817400	0.933500	-0.615983
C24	C	0.626700	0.803200	0.010300	0.760062
O1	O	0.615700	0.066200	0.593680	-0.615514
O2	O	0.650800	0.223300	0.678840	-0.877645
O3	O	0.571400	0.193800	0.455850	-0.626478
O4	O	0.719700	0.402200	0.460840	-0.626478
O5	O	0.884300	0.066200	0.906320	-0.615514
O6	O	0.849200	0.223300	0.821160	-0.877645
O7	O	0.928600	0.193800	0.044150	-0.626478
O8	O	0.780300	0.402200	0.039160	-0.626478
O9	O	0.115700	0.433800	0.406320	-0.615514
O10	O	0.150800	0.276700	0.321160	-0.877645
O11	O	0.071400	0.306200	0.544150	-0.626478
O12	O	0.219700	0.097800	0.539160	-0.626478
O13	O	0.384300	0.433800	0.093680	-0.615514
O14	O	0.349200	0.276700	0.178840	-0.877645
O15	O	0.428600	0.306200	0.955850	-0.626478
O16	O	0.280300	0.097800	0.960840	-0.626478
O17	O	0.384300	0.933800	0.406320	-0.615514
O18	O	0.349200	0.776700	0.321160	-0.877645
O19	O	0.428600	0.806200	0.544150	-0.626478
O20	O	0.280300	0.597800	0.539160	-0.626478
O21	O	0.115700	0.933800	0.093680	-0.615514
O22	O	0.150800	0.776700	0.178840	-0.877645
O23	O	0.071400	0.806200	0.955850	-0.626478
O24	O	0.219700	0.597800	0.960840	-0.626478
O25	O	0.884300	0.566200	0.593680	-0.615514
O26	O	0.849200	0.723300	0.678840	-0.877645
O27	O	0.928600	0.693800	0.455850	-0.626478
O28	O	0.780300	0.902200	0.460840	-0.626478
O29	O	0.615700	0.566200	0.906320	-0.615514
O30	O	0.650800	0.723300	0.821160	-0.877645
O31	O	0.571400	0.693800	0.044150	-0.626478
O32	O	0.719700	0.902200	0.039160	-0.626478
