data_WEBKOF_clean_PM
_symmetry_space_group_name_H-M	'P1'
_cell_length_a	17.303300
_cell_length_b	18.248100
_cell_length_c	18.248100
_cell_angle_alpha	77.009900
_cell_angle_beta	61.698501
_cell_angle_gamma	61.698499
_symmetry_Int_Tables_number 1

loop_
_symmetry_equiv_pos_as_xyz
'x,y,z'

loop_
_atom_site_label
_atom_site_type_symbol
_atom_site_fract_x
_atom_site_fract_y
_atom_site_fract_z
_atom_site_charge
Zn1	Zn	0.250000	0.500000	0.500000	1.084818
In1	In	0.390960	0.400800	0.999460	1.589961
In2	In	0.791220	0.599200	0.000540	1.589961
In3	In	0.609580	0.999460	0.599200	1.589961
In4	In	0.208240	0.000540	0.400800	1.589961
In5	In	0.000000	0.000000	0.000000	1.598982
H1	H	0.911400	0.784800	0.021600	0.118229
H2	H	0.164400	0.705200	0.025000	0.118229
H3	H	0.068600	0.537600	0.033600	0.118229
H4	H	0.424500	0.284500	0.595900	0.118229
H5	H	0.363200	0.463800	0.738400	0.118229
H6	H	0.497400	0.218000	0.788000	0.118229
H7	H	0.717800	0.215200	0.978400	0.118229
H8	H	0.894600	0.294800	0.975000	0.118229
H9	H	0.639800	0.462400	0.966400	0.118229
H10	H	0.304900	0.715500	0.404100	0.118229
H11	H	0.565400	0.536200	0.261600	0.118229
H12	H	0.503400	0.782000	0.212000	0.118229
H13	H	0.067000	0.021600	0.215200	0.118229
H14	H	0.810600	0.025000	0.294800	0.118229
H15	H	0.897800	0.033600	0.462400	0.118229
H16	H	0.979600	0.595900	0.715500	0.118229
H17	H	0.898400	0.738400	0.536200	0.118229
H18	H	0.714600	0.788000	0.782000	0.118229
H19	H	0.303800	0.978400	0.784800	0.118229
H20	H	0.130400	0.975000	0.705200	0.118229
H21	H	0.393800	0.966400	0.537600	0.118229
H22	H	0.291000	0.404100	0.284500	0.118229
H23	H	0.173000	0.261600	0.463800	0.118229
H24	H	0.284600	0.212000	0.218000	0.118229
C1	C	0.036100	0.755400	0.025400	-0.138562
C2	C	0.966800	0.740500	0.024100	0.038681
C3	C	0.229600	0.534200	0.018200	0.633102
C4	C	0.978600	0.658400	0.026600	-0.137394
C5	C	0.117700	0.693300	0.025100	0.038681
C6	C	0.061600	0.592000	0.029200	0.038681
C7	C	0.022700	0.846600	0.012000	0.648056
C8	C	0.135400	0.609000	0.024800	-0.137394
C9	C	0.466600	0.241400	0.684200	-0.144224
C10	C	0.424800	0.299600	0.641200	0.036590
C11	C	0.385300	0.408500	0.726900	0.035572
C12	C	0.425800	0.345700	0.775300	-0.137394
C13	C	0.377900	0.389100	0.661900	-0.138988
C14	C	0.469200	0.259700	0.756500	0.039786
C15	C	0.430900	0.362600	0.853800	0.633102
C16	C	0.332200	0.453700	0.609500	0.663936
C17	C	0.515100	0.153900	0.657100	0.693841
C18	C	0.907300	0.640300	0.018100	0.633102
C19	C	0.816900	0.244600	0.974600	-0.138562
C20	C	0.731400	0.259500	0.975900	0.038681
C21	C	0.782000	0.465800	0.981800	0.633102
C22	C	0.663600	0.341600	0.973400	-0.137394
C23	C	0.836100	0.306700	0.974900	0.038681
C24	C	0.682800	0.408000	0.970800	0.038681
C25	C	0.881300	0.153400	0.988000	0.648056
C26	C	0.769200	0.391000	0.975200	-0.137394
C27	C	0.392200	0.758600	0.315800	-0.144224
C28	C	0.365600	0.700400	0.358800	0.036590
C29	C	0.520700	0.591500	0.273100	0.035572
C30	C	0.546800	0.654300	0.224700	-0.137394
C31	C	0.428900	0.610900	0.338100	-0.138988
C32	C	0.485400	0.740300	0.243500	0.039786
C33	C	0.647300	0.637400	0.146200	0.633102
C34	C	0.395400	0.546300	0.390500	0.663936
C35	C	0.326100	0.846100	0.342900	0.693841
C36	C	0.565700	0.359700	0.981900	0.633102
C37	C	0.938500	0.025400	0.244600	-0.138562
C38	C	0.009100	0.024100	0.259500	0.038681
C39	C	0.752200	0.018200	0.465800	0.633102
C40	C	0.994800	0.026600	0.341600	-0.137394
C41	C	0.857200	0.025100	0.306700	0.038681
C42	C	0.909200	0.029200	0.408000	0.038681
C43	C	0.965300	0.012000	0.153400	0.648056
C44	C	0.839800	0.024800	0.391000	-0.137394
C45	C	0.849200	0.684200	0.758600	-0.144224
C46	C	0.934000	0.641200	0.700400	0.036590
C47	C	0.887800	0.726900	0.591500	0.035572
C48	C	0.798900	0.775300	0.654300	-0.137394
C49	C	0.960200	0.661900	0.610900	-0.138988
C50	C	0.774300	0.756500	0.740300	0.039786
C51	C	0.715300	0.853800	0.637400	0.633102
C52	C	0.058300	0.609500	0.546300	0.663936
C53	C	0.827800	0.657100	0.846100	0.693841
C54	C	0.074600	0.018100	0.359700	0.633102
C55	C	0.208500	0.974600	0.755400	-0.138562
C56	C	0.292700	0.975900	0.740500	0.038681
C57	C	0.236200	0.981800	0.534200	0.633102
C58	C	0.363000	0.973400	0.658400	-0.137394
C59	C	0.189000	0.974900	0.693300	0.038681
C60	C	0.346400	0.970800	0.592000	0.038681
C61	C	0.130700	0.988000	0.846600	0.648056
C62	C	0.255600	0.975200	0.609000	-0.137394
C63	C	0.292000	0.315800	0.241400	-0.144224
C64	C	0.275600	0.358800	0.299600	0.036590
C65	C	0.206200	0.273100	0.408500	0.035572
C66	C	0.228500	0.224700	0.345700	-0.137394
C67	C	0.233000	0.338100	0.389100	-0.138988
C68	C	0.271100	0.243500	0.259700	0.039786
C69	C	0.206500	0.146200	0.362600	0.633102
C70	C	0.214100	0.390500	0.453700	0.663936
C71	C	0.331000	0.342900	0.153900	0.693841
C72	C	0.452400	0.981900	0.640300	0.633102
O1	O	0.235000	0.462700	0.020900	-0.519929
O2	O	0.913900	0.568200	0.029000	-0.519929
O3	O	0.411900	0.437200	0.861400	-0.490969
O4	O	0.839000	0.699100	0.004700	-0.490969
O5	O	0.520000	0.133600	0.594200	-0.554641
O6	O	0.564800	0.092100	0.696500	-0.554641
O7	O	0.428000	0.311800	0.907800	-0.519929
O8	O	0.298100	0.545300	0.011700	-0.490969
O9	O	0.953700	0.902400	0.008800	-0.560472
O10	O	0.090900	0.858000	0.014000	-0.492749
O11	O	0.316400	0.421000	0.565200	-0.565764
O12	O	0.311600	0.525400	0.616600	-0.508498
O13	O	0.718600	0.537300	0.979100	-0.519929
O14	O	0.511100	0.431800	0.971000	-0.519929
O15	O	0.710500	0.562800	0.138600	-0.490969
O16	O	0.542800	0.300900	0.995300	-0.490969
O17	O	0.247800	0.866400	0.405800	-0.554641
O18	O	0.353400	0.907900	0.303500	-0.554641
O19	O	0.647600	0.688200	0.092200	-0.519929
O20	O	0.855100	0.454700	0.988300	-0.490969
O21	O	0.864900	0.097600	0.991200	-0.560472
O22	O	0.962900	0.142000	0.986000	-0.492749
O23	O	0.302600	0.579000	0.434800	-0.565764
O24	O	0.453600	0.474600	0.383400	-0.508498
O25	O	0.744100	0.020900	0.537300	-0.519929
O26	O	0.057100	0.029000	0.431800	-0.519929
O27	O	0.726700	0.861400	0.562800	-0.490969
O28	O	0.156300	0.004700	0.300900	-0.490969
O29	O	0.885800	0.594200	0.866400	-0.554641
O30	O	0.738700	0.696500	0.907900	-0.554641
O31	O	0.664200	0.907800	0.688200	-0.519929
O32	O	0.690200	0.011700	0.454700	-0.490969
O33	O	0.037500	0.008800	0.097600	-0.560472
O34	O	0.895100	0.014000	0.142000	-0.492749
O35	O	0.118400	0.565200	0.579000	-0.565764
O36	O	0.071800	0.616600	0.474600	-0.508498
O37	O	0.302300	0.979100	0.462700	-0.519929
O38	O	0.517900	0.971000	0.568200	-0.519929
O39	O	0.150900	0.138600	0.437200	-0.490969
O40	O	0.461900	0.995300	0.699100	-0.490969
O41	O	0.346400	0.405800	0.133600	-0.554641
O42	O	0.343100	0.303500	0.092100	-0.554641
O43	O	0.260200	0.092200	0.311800	-0.519929
O44	O	0.156600	0.988300	0.545300	-0.490969
O45	O	0.143900	0.991200	0.902400	-0.560472
O46	O	0.051100	0.986000	0.858000	-0.492749
O47	O	0.262600	0.434800	0.421000	-0.565764
O48	O	0.163000	0.383400	0.525400	-0.508498
