data_WECJAR_clean_PM
_symmetry_space_group_name_H-M	'P1'
_cell_length_a	9.931200
_cell_length_b	13.961100
_cell_length_c	13.961100
_cell_angle_alpha	104.074001
_cell_angle_beta	94.014600
_cell_angle_gamma	94.014599
_symmetry_Int_Tables_number 1

loop_
_symmetry_equiv_pos_as_xyz
'x,y,z'

loop_
_atom_site_label
_atom_site_type_symbol
_atom_site_fract_x
_atom_site_fract_y
_atom_site_fract_z
_atom_site_charge
Zn1	Zn	0.605040	0.236510	0.692540	0.925863
Zn2	Zn	0.894960	0.307460	0.763490	0.925863
Zn3	Zn	0.394960	0.763490	0.307460	0.925863
Zn4	Zn	0.105040	0.692540	0.236510	0.925863
H1	H	0.986400	0.404200	0.472200	0.104868
H2	H	0.927200	0.415700	0.302700	0.107379
H3	H	0.503400	0.264700	0.190900	0.107379
H4	H	0.464500	0.253900	0.014900	0.104868
H5	H	0.455800	0.035600	0.624400	0.083047
H6	H	0.349300	0.292600	0.609600	0.083047
H7	H	0.243000	0.961200	0.558200	0.128538
H8	H	0.135600	0.227800	0.544000	0.128538
H9	H	0.962000	0.090700	0.495500	0.105402
H10	H	0.513600	0.527800	0.595800	0.104868
H11	H	0.572800	0.697300	0.584300	0.107379
H12	H	0.996600	0.809100	0.735300	0.107379
H13	H	0.035500	0.985100	0.746100	0.104868
H14	H	0.044200	0.375600	0.964400	0.083047
H15	H	0.150700	0.390400	0.707400	0.083047
H16	H	0.257000	0.441800	0.038800	0.128538
H17	H	0.364400	0.456000	0.772200	0.128538
H18	H	0.538000	0.504500	0.909300	0.105402
H19	H	0.013600	0.595800	0.527800	0.104868
H20	H	0.072800	0.584300	0.697300	0.107379
H21	H	0.496600	0.735300	0.809100	0.107379
H22	H	0.535500	0.746100	0.985100	0.104868
H23	H	0.544200	0.964400	0.375600	0.083047
H24	H	0.650700	0.707400	0.390400	0.083047
H25	H	0.757000	0.038800	0.441800	0.128538
H26	H	0.864400	0.772200	0.456000	0.128538
H27	H	0.038000	0.909300	0.504500	0.105402
H28	H	0.486400	0.472200	0.404200	0.104868
H29	H	0.427200	0.302700	0.415700	0.107379
H30	H	0.003400	0.190900	0.264700	0.107379
H31	H	0.964500	0.014900	0.253900	0.104868
H32	H	0.955800	0.624400	0.035600	0.083047
H33	H	0.849300	0.609600	0.292600	0.083047
H34	H	0.743000	0.558200	0.961200	0.128538
H35	H	0.635600	0.544000	0.227800	0.128538
H36	H	0.462000	0.495500	0.090700	0.105402
C1	C	0.820600	0.279490	0.557250	0.698844
C2	C	0.828100	0.299930	0.459610	-0.194884
C3	C	0.913600	0.366880	0.431300	-0.050563
C4	C	0.879500	0.373370	0.333070	-0.143981
C5	C	0.768300	0.310540	0.287320	0.001981
C6	C	0.705200	0.295780	0.186820	0.001981
C7	C	0.572300	0.274110	0.151470	-0.143981
C8	C	0.549700	0.267450	0.049830	-0.050563
C9	C	0.667000	0.283030	0.007610	-0.194884
C10	C	0.690000	0.281820	0.903580	0.698844
C11	C	0.389700	0.075240	0.609760	0.175629
C12	C	0.327000	0.225080	0.601020	0.175629
C13	C	0.260900	0.029480	0.569920	-0.196276
C14	C	0.197700	0.186910	0.561570	-0.196276
C15	C	0.161800	0.086310	0.548490	0.129795
C16	C	0.022200	0.046500	0.508820	-0.120337
C17	C	0.679400	0.442750	0.720510	0.698844
C18	C	0.671900	0.540390	0.700070	-0.194884
C19	C	0.586400	0.568700	0.633120	-0.050563
C20	C	0.620500	0.666930	0.626630	-0.143981
C21	C	0.731700	0.712680	0.689460	0.001981
C22	C	0.794800	0.813180	0.704220	0.001981
C23	C	0.927700	0.848530	0.725890	-0.143981
C24	C	0.950300	0.950170	0.732550	-0.050563
C25	C	0.833000	0.992390	0.716970	-0.194884
C26	C	0.810000	0.096420	0.718180	0.698844
C27	C	0.110300	0.390240	0.924760	0.175629
C28	C	0.173000	0.398980	0.774920	0.175629
C29	C	0.239100	0.430080	0.970520	-0.196276
C30	C	0.302300	0.438430	0.813090	-0.196276
C31	C	0.338200	0.451510	0.913690	0.129795
C32	C	0.477800	0.491180	0.953500	-0.120337
C33	C	0.179400	0.720510	0.442750	0.698844
C34	C	0.171900	0.700070	0.540390	-0.194884
C35	C	0.086400	0.633120	0.568700	-0.050563
C36	C	0.120500	0.626630	0.666930	-0.143981
C37	C	0.231700	0.689460	0.712680	0.001981
C38	C	0.294800	0.704220	0.813180	0.001981
C39	C	0.427700	0.725890	0.848530	-0.143981
C40	C	0.450300	0.732550	0.950170	-0.050563
C41	C	0.333000	0.716970	0.992390	-0.194884
C42	C	0.310000	0.718180	0.096420	0.698844
C43	C	0.610300	0.924760	0.390240	0.175629
C44	C	0.673000	0.774920	0.398980	0.175629
C45	C	0.739100	0.970520	0.430080	-0.196276
C46	C	0.802300	0.813090	0.438430	-0.196276
C47	C	0.838200	0.913690	0.451510	0.129795
C48	C	0.977800	0.953500	0.491180	-0.120337
C49	C	0.320600	0.557250	0.279490	0.698844
C50	C	0.328100	0.459610	0.299930	-0.194884
C51	C	0.413600	0.431300	0.366880	-0.050563
C52	C	0.379500	0.333070	0.373370	-0.143981
C53	C	0.268300	0.287320	0.310540	0.001981
C54	C	0.205200	0.186820	0.295780	0.001981
C55	C	0.072300	0.151470	0.274110	-0.143981
C56	C	0.049700	0.049830	0.267450	-0.050563
C57	C	0.167000	0.007610	0.283030	-0.194884
C58	C	0.190000	0.903580	0.281820	0.698844
C59	C	0.889700	0.609760	0.075240	0.175629
C60	C	0.827000	0.601020	0.225080	0.175629
C61	C	0.760900	0.569920	0.029480	-0.196276
C62	C	0.697700	0.561570	0.186910	-0.196276
C63	C	0.661800	0.548490	0.086310	0.129795
C64	C	0.522200	0.508820	0.046500	-0.120337
S1	S	0.704930	0.243200	0.365200	0.092645
S2	S	0.805920	0.306640	0.093800	0.092645
S3	S	0.795070	0.634800	0.756800	0.092645
S4	S	0.694080	0.906200	0.693360	0.092645
S5	S	0.295070	0.756800	0.634800	0.092645
S6	S	0.194080	0.693360	0.906200	0.092645
S7	S	0.204930	0.365200	0.243200	0.092645
S8	S	0.305920	0.093800	0.306640	0.092645
N1	N	0.421800	0.171800	0.627560	-0.310478
N2	N	0.078200	0.372440	0.828200	-0.310478
N3	N	0.578200	0.828200	0.372440	-0.310478
N4	N	0.921800	0.627560	0.171800	-0.310478
O1	O	0.587780	0.272240	0.842000	-0.586175
O2	O	0.812410	0.290400	0.886560	-0.586175
O3	O	0.717820	0.227040	0.569780	-0.586175
O4	O	0.917530	0.317170	0.622490	-0.586175
O5	O	0.912220	0.158000	0.727760	-0.586175
O6	O	0.687590	0.113440	0.709600	-0.586175
O7	O	0.782180	0.430220	0.772960	-0.586175
O8	O	0.582470	0.377510	0.682830	-0.586175
O9	O	0.412220	0.727760	0.158000	-0.586175
O10	O	0.187590	0.709600	0.113440	-0.586175
O11	O	0.282180	0.772960	0.430220	-0.586175
O12	O	0.082470	0.682830	0.377510	-0.586175
O13	O	0.087780	0.842000	0.272240	-0.586175
O14	O	0.312410	0.886560	0.290400	-0.586175
O15	O	0.217820	0.569780	0.227040	-0.586175
O16	O	0.417530	0.622490	0.317170	-0.586175
