data_WEDWUZ_clean_PM
_symmetry_space_group_name_H-M	'P1'
_cell_length_a	9.850999
_cell_length_b	14.822000
_cell_length_c	20.233000
_cell_angle_alpha	73.448000
_cell_angle_beta	82.987002
_cell_angle_gamma	77.721002
_symmetry_Int_Tables_number 1

loop_
_symmetry_equiv_pos_as_xyz
'x,y,z'

loop_
_atom_site_label
_atom_site_type_symbol
_atom_site_fract_x
_atom_site_fract_y
_atom_site_fract_z
_atom_site_charge
Sm1	Sm	0.336270	0.047010	0.811610	2.287517
Sm2	Sm	0.870430	0.052200	0.796660	2.264106
Sm3	Sm	0.663730	0.952990	0.188390	2.287517
Sm4	Sm	0.129570	0.947800	0.203340	2.264106
Cu1	Cu	0.671790	0.496980	0.885380	0.200337
Cu2	Cu	0.406380	0.512790	0.947020	0.226299
Cu3	Cu	0.258930	0.560950	0.658590	0.155538
Cu4	Cu	0.901640	0.400140	0.446650	0.154154
Cu5	Cu	0.226120	0.743450	0.571540	0.203679
Cu6	Cu	0.014600	0.668650	0.672920	0.240376
Cu7	Cu	0.328210	0.503020	0.114620	0.200337
Cu8	Cu	0.593620	0.487210	0.052980	0.226299
Cu9	Cu	0.741070	0.439050	0.341410	0.155538
Cu10	Cu	0.098360	0.599860	0.553350	0.154154
Cu11	Cu	0.773880	0.256550	0.428460	0.203679
Cu12	Cu	0.985400	0.331350	0.327080	0.240376
H1	H	0.960000	0.544000	0.855500	0.084308
H2	H	0.183100	0.466600	0.846700	0.128412
H3	H	0.229300	0.302800	0.853600	0.097392
H4	H	0.818800	0.313400	0.864200	0.079725
H5	H	0.104300	0.537200	0.973300	0.081516
H6	H	0.908800	0.650100	0.963400	0.128412
H7	H	0.925900	0.811400	0.920000	0.097392
H8	H	0.339000	0.727100	0.910700	0.078707
H9	H	0.353200	0.353900	0.721900	0.078944
H10	H	0.768100	0.300900	0.720000	0.097392
H11	H	0.764700	0.457300	0.654300	0.128412
H12	H	0.558100	0.556000	0.623600	0.081561
H13	H	0.930500	0.281400	0.587300	0.078944
H14	H	0.319600	0.248800	0.641400	0.097392
H15	H	0.357700	0.368500	0.540600	0.128412
H16	H	0.187100	0.432600	0.466000	0.081561
H17	H	0.504700	0.789300	0.504600	0.081561
H18	H	0.668700	0.872700	0.515700	0.128412
H19	H	0.624900	0.958200	0.597800	0.097392
H20	H	0.256300	0.878300	0.645800	0.078944
H21	H	0.882100	0.801200	0.755200	0.077842
H22	H	0.477200	0.788000	0.796600	0.097392
H23	H	0.517500	0.660700	0.746200	0.128412
H24	H	0.736000	0.605800	0.705800	0.080264
H25	H	0.040000	0.456000	0.144500	0.084308
H26	H	0.816900	0.533400	0.153300	0.128412
H27	H	0.770700	0.697200	0.146400	0.097392
H28	H	0.181200	0.686600	0.135800	0.079725
H29	H	0.895700	0.462800	0.026700	0.081516
H30	H	0.091200	0.349900	0.036600	0.128412
H31	H	0.074100	0.188600	0.080000	0.097392
H32	H	0.661000	0.272900	0.089300	0.078707
H33	H	0.646800	0.646100	0.278100	0.078944
H34	H	0.231900	0.699100	0.280000	0.097392
H35	H	0.235300	0.542700	0.345700	0.128412
H36	H	0.441900	0.444000	0.376400	0.081561
H37	H	0.069500	0.718600	0.412700	0.078944
H38	H	0.680400	0.751200	0.358600	0.097392
H39	H	0.642300	0.631500	0.459400	0.128412
H40	H	0.812900	0.567400	0.534000	0.081561
H41	H	0.495300	0.210700	0.495400	0.081561
H42	H	0.331300	0.127300	0.484300	0.128412
H43	H	0.375100	0.041800	0.402200	0.097392
H44	H	0.743700	0.121700	0.354200	0.078944
H45	H	0.117900	0.198800	0.244800	0.077842
H46	H	0.522800	0.212000	0.203400	0.097392
H47	H	0.482500	0.339300	0.253800	0.128412
H48	H	0.264000	0.394200	0.294200	0.080264
C1	C	0.976500	0.479600	0.856200	0.152155
C2	C	0.110400	0.433500	0.851700	-0.176086
C3	C	0.138200	0.336400	0.854800	0.055932
C4	C	0.026700	0.291500	0.859600	-0.228287
C5	C	0.893200	0.343800	0.862100	0.181556
C6	C	0.046100	0.187000	0.861000	0.823427
C7	C	0.113800	0.601000	0.957300	0.150625
C8	C	0.995300	0.668100	0.951100	-0.176231
C9	C	0.005000	0.763600	0.926300	0.055932
C10	C	0.135900	0.785200	0.911200	-0.228059
C11	C	0.251000	0.711200	0.920400	0.178434
C12	C	0.158200	0.886700	0.884800	0.823427
C13	C	0.437400	0.374900	0.708700	0.166451
C14	C	0.559100	0.310200	0.728000	-0.226548
C15	C	0.684100	0.341800	0.707600	0.055932
C16	C	0.681800	0.434800	0.668600	-0.174655
C17	C	0.557500	0.494000	0.651100	0.142869
C18	C	0.552300	0.210300	0.771700	0.823427
C19	C	0.018100	0.298000	0.577800	0.166451
C20	C	0.117400	0.253700	0.625900	-0.226548
C21	C	0.249200	0.278400	0.611300	0.055932
C22	C	0.272500	0.348500	0.550700	-0.174655
C23	C	0.169300	0.387000	0.506700	0.142869
C24	C	0.082300	0.183900	0.690500	0.823427
C25	C	0.485900	0.825100	0.536800	0.143452
C26	C	0.586000	0.874200	0.543300	-0.174655
C27	C	0.559100	0.925100	0.591900	0.055932
C28	C	0.436400	0.927700	0.631700	-0.222788
C29	C	0.341000	0.876600	0.619800	0.167305
C30	C	0.401800	0.977400	0.687400	0.790328
C31	C	0.807400	0.772500	0.754000	0.172621
C32	C	0.679700	0.807600	0.782200	-0.227847
C33	C	0.565800	0.765600	0.779200	0.055932
C34	C	0.590400	0.689900	0.749200	-0.175885
C35	C	0.721500	0.658200	0.724200	0.146614
C36	C	0.664000	0.890000	0.813000	0.823427
C37	C	0.023500	0.520400	0.143800	0.152155
C38	C	0.889600	0.566500	0.148300	-0.176086
C39	C	0.861800	0.663600	0.145200	0.055932
C40	C	0.973300	0.708500	0.140400	-0.228287
C41	C	0.106800	0.656200	0.137900	0.181556
C42	C	0.953900	0.813000	0.139000	0.823427
C43	C	0.886200	0.399000	0.042700	0.150625
C44	C	0.004700	0.331900	0.048900	-0.176231
C45	C	0.995000	0.236400	0.073700	0.055932
C46	C	0.864100	0.214800	0.088800	-0.228059
C47	C	0.749000	0.288800	0.079600	0.178434
C48	C	0.841800	0.113300	0.115200	0.823427
C49	C	0.562600	0.625100	0.291300	0.166451
C50	C	0.440900	0.689800	0.272000	-0.226548
C51	C	0.315900	0.658200	0.292400	0.055932
C52	C	0.318200	0.565200	0.331400	-0.174655
C53	C	0.442500	0.506000	0.348900	0.142869
C54	C	0.447700	0.789700	0.228300	0.823427
C55	C	0.981900	0.702000	0.422200	0.166451
C56	C	0.882600	0.746300	0.374100	-0.226548
C57	C	0.750800	0.721600	0.388700	0.055932
C58	C	0.727500	0.651500	0.449300	-0.174655
C59	C	0.830700	0.613000	0.493300	0.142869
C60	C	0.917700	0.816100	0.309500	0.823427
C61	C	0.514100	0.174900	0.463200	0.143452
C62	C	0.414000	0.125800	0.456700	-0.174655
C63	C	0.440900	0.074900	0.408100	0.055932
C64	C	0.563600	0.072300	0.368300	-0.222788
C65	C	0.659000	0.123400	0.380200	0.167305
C66	C	0.598200	0.022600	0.312600	0.790328
C67	C	0.192600	0.227500	0.246000	0.172621
C68	C	0.320300	0.192400	0.217800	-0.227847
C69	C	0.434200	0.234400	0.220800	0.055932
C70	C	0.409600	0.310100	0.250800	-0.175885
C71	C	0.278500	0.341800	0.275800	0.146614
C72	C	0.336000	0.110000	0.187000	0.823427
Br1	Br	0.497680	0.423100	0.864210	-0.379937
Br2	Br	0.624270	0.616910	0.945080	-0.238422
Br3	Br	0.037410	0.497130	0.662140	-0.274135
Br4	Br	0.216260	0.675640	0.727960	-0.372341
Br5	Br	0.672710	0.373250	0.491800	-0.348997
Br6	Br	0.982710	0.815190	0.563450	-0.374006
Br7	Br	0.502320	0.576900	0.135790	-0.379937
Br8	Br	0.375730	0.383090	0.054920	-0.238422
Br9	Br	0.962590	0.502870	0.337860	-0.274135
Br10	Br	0.783740	0.324360	0.272040	-0.372341
Br11	Br	0.327290	0.626750	0.508200	-0.348997
Br12	Br	0.017290	0.184810	0.436550	-0.374006
N1	N	0.865800	0.437100	0.861500	-0.251404
N2	N	0.242600	0.618700	0.942400	-0.241818
N3	N	0.434300	0.466300	0.672000	-0.248876
N4	N	0.041500	0.362900	0.518800	-0.248285
N5	N	0.365400	0.825800	0.573400	-0.248043
N6	N	0.830500	0.699100	0.724900	-0.253923
N7	N	0.134200	0.562900	0.138500	-0.251404
N8	N	0.757400	0.381300	0.057600	-0.241818
N9	N	0.565700	0.533700	0.328000	-0.248876
N10	N	0.958500	0.637100	0.481200	-0.248285
N11	N	0.634600	0.174200	0.426600	-0.248043
N12	N	0.169500	0.300900	0.275100	-0.253923
O1	O	0.944300	0.159200	0.848700	-0.807076
O2	O	0.166100	0.137200	0.873800	-0.754878
O3	O	0.274700	0.904000	0.892000	-0.754878
O4	O	0.063700	0.950700	0.855400	-0.807076
O5	O	0.660700	0.161000	0.798700	-0.807076
O6	O	0.437500	0.183700	0.778100	-0.754878
O7	O	0.959100	0.167100	0.701500	-0.807076
O8	O	0.175200	0.143800	0.732800	-0.754878
O9	O	0.467200	0.038800	0.691600	-0.751481
O10	O	0.305200	0.952100	0.733300	-0.751481
O11	O	0.771700	0.914300	0.821900	-0.807076
O12	O	0.543700	0.930900	0.826800	-0.754878
O13	O	0.055700	0.840800	0.151300	-0.807076
O14	O	0.833900	0.862800	0.126200	-0.754878
O15	O	0.725300	0.096000	0.108000	-0.754878
O16	O	0.936300	0.049300	0.144600	-0.807076
O17	O	0.339300	0.839000	0.201300	-0.807076
O18	O	0.562500	0.816300	0.221900	-0.754878
O19	O	0.040900	0.832900	0.298500	-0.807076
O20	O	0.824800	0.856200	0.267200	-0.754878
O21	O	0.532800	0.961200	0.308400	-0.751481
O22	O	0.694800	0.047900	0.266700	-0.751481
O23	O	0.228300	0.085700	0.178100	-0.807076
O24	O	0.456300	0.069100	0.173200	-0.754878
