data_WENDIE_clean_PM
_symmetry_space_group_name_H-M	'P1'
_cell_length_a	7.933200
_cell_length_b	9.901000
_cell_length_c	17.216300
_cell_angle_alpha	104.070001
_cell_angle_beta	90.000000
_cell_angle_gamma	113.617003
_symmetry_Int_Tables_number 1

loop_
_symmetry_equiv_pos_as_xyz
'x,y,z'

loop_
_atom_site_label
_atom_site_type_symbol
_atom_site_fract_x
_atom_site_fract_y
_atom_site_fract_z
_atom_site_charge
Zn1	Zn	0.186850	0.832680	0.755720	0.901881
Zn2	Zn	0.333710	0.500920	0.756600	0.901881
Zn3	Zn	0.354170	0.167320	0.244280	0.901881
Zn4	Zn	0.832790	0.499080	0.243400	0.901881
H1	H	0.876700	0.786200	0.606300	0.108536
H2	H	0.824900	0.685000	0.467400	0.107633
H3	H	0.477900	0.282200	0.495000	0.107633
H4	H	0.542500	0.372800	0.633500	0.108536
H5	H	0.146500	0.066600	0.897200	0.108536
H6	H	0.246400	0.144800	0.032500	0.107633
H7	H	0.687800	0.496400	0.998200	0.107633
H8	H	0.582400	0.422000	0.863900	0.108536
H9	H	0.090500	0.213800	0.393700	0.108536
H10	H	0.139900	0.315000	0.532600	0.107633
H11	H	0.195700	0.717800	0.505000	0.107633
H12	H	0.169700	0.627200	0.366500	0.108536
H13	H	0.079900	0.933400	0.102800	0.108536
H14	H	0.101600	0.855200	0.967500	0.107633
H15	H	0.191400	0.503600	0.001800	0.107633
H16	H	0.160400	0.578000	0.136100	0.108536
C1	C	0.741000	0.659200	0.721600	0.356816
C2	C	0.714500	0.592200	0.634500	-0.043572
C3	C	0.798800	0.683800	0.584400	-0.094518
C4	C	0.767600	0.623200	0.501100	-0.042670
C5	C	0.652100	0.472000	0.468800	-0.128625
C6	C	0.562900	0.382200	0.517800	-0.042670
C7	C	0.596600	0.437200	0.600600	-0.094518
C8	C	0.607200	0.406400	0.376600	0.701807
C9	C	0.283700	0.187400	0.779400	0.356816
C10	C	0.353100	0.242200	0.867300	-0.043572
C11	C	0.254000	0.154600	0.917700	-0.094518
C12	C	0.317000	0.199600	0.998300	-0.042670
C13	C	0.477400	0.320200	0.028900	-0.128625
C14	C	0.579100	0.409600	0.977800	-0.042670
C15	C	0.514300	0.365800	0.898000	-0.094518
C16	C	0.554100	0.361800	0.116900	0.701807
C17	C	0.081800	0.340800	0.278400	0.356816
C18	C	0.122300	0.407800	0.365500	-0.043572
C19	C	0.115000	0.316200	0.415600	-0.094518
C20	C	0.144400	0.376800	0.498900	-0.042670
C21	C	0.180100	0.528000	0.531200	-0.128625
C22	C	0.180700	0.617800	0.482200	-0.042670
C23	C	0.159400	0.562800	0.399400	-0.094518
C24	C	0.200800	0.593600	0.623400	0.701807
C25	C	0.096300	0.812600	0.220600	0.356816
C26	C	0.110900	0.757800	0.132700	-0.043572
C27	C	0.099400	0.845400	0.082300	-0.094518
C28	C	0.117400	0.800400	0.001700	-0.042670
C29	C	0.157200	0.679800	0.971100	-0.128625
C30	C	0.169500	0.590400	0.022200	-0.042670
C31	C	0.148500	0.634200	0.102000	-0.094518
C32	C	0.192300	0.638200	0.883100	0.701807
N1	N	0.604600	0.634400	0.769400	-0.315672
N2	N	0.681100	0.724000	0.844300	-0.071480
N3	N	0.857500	0.800000	0.842200	-0.071480
N4	N	0.897500	0.759600	0.765100	-0.315672
N5	N	0.282900	0.277400	0.734400	-0.315672
N6	N	0.199400	0.179400	0.660400	-0.071480
N7	N	0.152900	0.040600	0.662100	-0.071480
N8	N	0.208600	0.040000	0.738400	-0.315672
N9	N	0.970200	0.365600	0.230600	-0.315672
N10	N	0.957100	0.276000	0.155700	-0.071480
N11	N	0.057500	0.200000	0.157800	-0.071480
N12	N	0.137900	0.240400	0.234900	-0.315672
N13	N	0.005500	0.722600	0.265600	-0.315672
N14	N	0.020000	0.820600	0.339600	-0.071480
N15	N	0.112300	0.959400	0.337900	-0.071480
N16	N	0.168600	0.960000	0.261600	-0.315672
O1	O	0.490700	0.280800	0.351600	-0.585982
O2	O	0.700800	0.497200	0.336200	-0.585982
O3	O	0.464500	0.272200	0.154700	-0.585982
O4	O	0.702300	0.469200	0.141100	-0.585982
O5	O	0.209900	0.719200	0.648400	-0.585982
O6	O	0.203600	0.502800	0.663800	-0.585982
O7	O	0.192300	0.727800	0.845300	-0.585982
O8	O	0.233100	0.530800	0.858900	-0.585982
