data_WOGHEG_clean_PM
_symmetry_space_group_name_H-M	'P1'
_cell_length_a	7.927300
_cell_length_b	10.556000
_cell_length_c	13.155000
_cell_angle_alpha	107.259999
_cell_angle_beta	107.060003
_cell_angle_gamma	90.649998
_symmetry_Int_Tables_number 1

loop_
_symmetry_equiv_pos_as_xyz
'x,y,z'

loop_
_atom_site_label
_atom_site_type_symbol
_atom_site_fract_x
_atom_site_fract_y
_atom_site_fract_z
_atom_site_charge
Zn1	Zn	0.273830	0.954630	0.701830	0.931969
Zn2	Zn	0.614270	0.129230	0.822060	0.931969
H1	H	0.550200	0.158600	0.140600	0.103701
H2	H	0.566000	0.151800	0.322600	0.109282
H3	H	0.238100	0.841500	0.176100	0.109282
H4	H	0.219600	0.849400	0.005800	0.103701
H5	H	0.306700	0.932800	0.381900	0.103933
H6	H	0.579700	0.140400	0.460900	0.140076
H7	H	0.240300	0.452100	0.802800	0.140076
H8	H	0.918100	0.285900	0.728800	0.103933
H9	H	0.125200	0.627300	0.811500	0.109282
H10	H	0.950600	0.807600	0.818300	0.103701
H11	H	0.507000	0.575600	0.690200	0.103701
H12	H	0.664900	0.396200	0.697200	0.109282
H13	H	0.712800	0.395300	0.996300	0.087318
H14	H	0.964300	0.530000	0.124700	0.130529
H15	H	0.268400	0.246400	0.026200	0.130529
H16	H	0.017000	0.111600	0.897900	0.087318
H17	H	0.620600	0.821400	0.507300	0.130529
H18	H	0.872300	0.944900	0.645100	0.087318
H19	H	0.178900	0.701400	0.499300	0.087318
H20	H	0.927200	0.578000	0.361500	0.130529
C1	C	0.393000	0.017000	0.943600	0.671135
C2	C	0.391000	0.006000	0.046800	-0.127013
C3	C	0.482000	0.088000	0.143300	-0.022290
C4	C	0.492000	0.087000	0.260200	-0.140074
C5	C	0.392000	0.989000	0.274500	0.064880
C6	C	0.307000	0.913200	0.176200	-0.140074
C7	C	0.296000	0.914900	0.066700	-0.022290
C8	C	0.388000	0.991000	0.375000	-0.020119
C9	C	0.502000	0.079000	0.467300	-0.269154
C10	C	0.501000	0.076000	0.589500	0.706663
C11	C	0.279000	0.249400	0.779500	0.706663
C12	C	0.175000	0.369200	0.780000	-0.269154
C13	C	0.988000	0.366000	0.748900	-0.020119
C14	C	0.909000	0.485000	0.748600	0.064880
C15	C	0.002000	0.613200	0.787000	-0.140074
C16	C	0.891000	0.722000	0.785000	-0.022290
C17	C	0.715000	0.714100	0.741300	-0.127013
C18	C	0.620000	0.832000	0.747200	0.671135
C19	C	0.630300	0.588400	0.712700	-0.022290
C20	C	0.728000	0.479200	0.717200	-0.140074
C21	C	0.824200	0.365400	0.002300	0.169834
C22	C	0.974800	0.446100	0.079200	-0.154658
C23	C	0.141300	0.401500	0.088200	0.052954
C24	C	0.157100	0.276200	0.020200	-0.154658
C25	C	0.006400	0.195500	0.943400	0.169834
C26	C	0.304800	0.482700	0.171600	0.318023
C27	C	0.611100	0.631600	0.330700	0.318023
C28	C	0.749000	0.687400	0.420700	0.052954
C29	C	0.732500	0.797400	0.505700	-0.154658
C30	C	0.883300	0.871300	0.588300	0.169834
C31	C	0.067000	0.725500	0.500900	0.169834
C32	C	0.916200	0.651500	0.418300	-0.154658
N1	N	0.840000	0.240100	0.934400	-0.301101
N2	N	0.467300	0.431200	0.181500	-0.249885
N3	N	0.620500	0.505600	0.261100	-0.249885
N4	N	0.448600	0.683100	0.320700	-0.249885
N5	N	0.295400	0.608700	0.241100	-0.249885
N6	N	0.050600	0.835400	0.585900	-0.301101
O1	O	0.524000	0.081200	0.940100	-0.577352
O2	O	0.260000	0.950100	0.852600	-0.577352
O3	O	0.619000	0.137600	0.667700	-0.592528
O4	O	0.373000	0.994000	0.584100	-0.592528
O5	O	0.442000	0.273400	0.818500	-0.592528
O6	O	0.177200	0.135600	0.736000	-0.592528
O7	O	0.701000	0.946100	0.793300	-0.577352
O8	O	0.449800	0.817600	0.704700	-0.577352
