data_WUTBIW_clean_PM
_symmetry_space_group_name_H-M	'P1'
_cell_length_a	13.402700
_cell_length_b	13.402700
_cell_length_c	14.669000
_cell_angle_alpha	90.000000
_cell_angle_beta	90.000000
_cell_angle_gamma	119.999999
_symmetry_Int_Tables_number 1

loop_
_symmetry_equiv_pos_as_xyz
'x,y,z'

loop_
_atom_site_label
_atom_site_type_symbol
_atom_site_fract_x
_atom_site_fract_y
_atom_site_fract_z
_atom_site_charge
Nd1	Nd	0.333330	0.666660	0.831110	2.242525
Nd2	Nd	0.666670	0.333340	0.668890	2.242525
Nd3	Nd	0.666670	0.333340	0.168890	2.242525
Nd4	Nd	0.333330	0.666660	0.331110	2.242525
Cu1	Cu	0.000000	0.500000	0.000000	0.745441
Cu2	Cu	0.500000	0.000000	0.000000	0.745441
Cu3	Cu	0.500000	0.500000	0.000000	0.745441
Cu4	Cu	0.500000	0.500000	0.500000	0.745441
Cu5	Cu	0.500000	0.000000	0.500000	0.745441
Cu6	Cu	0.000000	0.500000	0.500000	0.745441
H1	H	0.040400	0.292500	0.951900	0.131485
H2	H	0.139500	0.320000	0.021700	0.131485
H3	H	0.975200	0.326300	0.077300	0.252346
H4	H	0.190800	0.458900	0.126800	0.131299
H5	H	0.082600	0.397300	0.190200	0.131299
H6	H	0.252100	0.959600	0.951900	0.131485
H7	H	0.180500	0.860500	0.021700	0.131485
H8	H	0.351100	0.024800	0.077300	0.252346
H9	H	0.268100	0.809200	0.126800	0.131299
H10	H	0.314700	0.917400	0.190200	0.131299
H11	H	0.707500	0.747900	0.951900	0.131485
H12	H	0.680000	0.819500	0.021700	0.131485
H13	H	0.673700	0.648900	0.077300	0.252346
H14	H	0.541100	0.731900	0.126800	0.131299
H15	H	0.602700	0.685300	0.190200	0.131299
H16	H	0.747900	0.707500	0.548100	0.131485
H17	H	0.819500	0.680000	0.478300	0.131485
H18	H	0.648900	0.673700	0.422700	0.252346
H19	H	0.731900	0.541100	0.373200	0.131299
H20	H	0.685300	0.602700	0.309800	0.131299
H21	H	0.292500	0.040400	0.548100	0.131485
H22	H	0.320000	0.139500	0.478300	0.131485
H23	H	0.326300	0.975200	0.422700	0.252346
H24	H	0.458900	0.190800	0.373200	0.131299
H25	H	0.397300	0.082600	0.309800	0.131299
H26	H	0.959600	0.252100	0.548100	0.131485
H27	H	0.860500	0.180500	0.478300	0.131485
H28	H	0.024800	0.351100	0.422700	0.252346
H29	H	0.809200	0.268100	0.373200	0.131299
H30	H	0.917400	0.314700	0.309800	0.131299
H31	H	0.959600	0.707500	0.048100	0.131485
H32	H	0.860500	0.680000	0.978300	0.131485
H33	H	0.024800	0.673700	0.922700	0.252346
H34	H	0.809200	0.541100	0.873200	0.131299
H35	H	0.917400	0.602700	0.809800	0.131299
H36	H	0.747900	0.040400	0.048100	0.131485
H37	H	0.819500	0.139500	0.978300	0.131485
H38	H	0.648900	0.975200	0.922700	0.252346
H39	H	0.731900	0.190800	0.873200	0.131299
H40	H	0.685300	0.082600	0.809800	0.131299
H41	H	0.292500	0.252100	0.048100	0.131485
H42	H	0.320000	0.180500	0.978300	0.131485
H43	H	0.326300	0.351100	0.922700	0.252346
H44	H	0.458900	0.268100	0.873200	0.131299
H45	H	0.397300	0.314700	0.809800	0.131299
H46	H	0.252100	0.292500	0.451900	0.131485
H47	H	0.180500	0.320000	0.521700	0.131485
H48	H	0.351100	0.326300	0.577300	0.252346
H49	H	0.268100	0.458900	0.626800	0.131299
H50	H	0.314700	0.397300	0.690200	0.131299
H51	H	0.707500	0.959600	0.451900	0.131485
H52	H	0.680000	0.860500	0.521700	0.131485
H53	H	0.673700	0.024800	0.577300	0.252346
H54	H	0.541100	0.809200	0.626800	0.131299
H55	H	0.602700	0.917400	0.690200	0.131299
H56	H	0.040400	0.747900	0.451900	0.131485
H57	H	0.139500	0.819500	0.521700	0.131485
H58	H	0.975200	0.648900	0.577300	0.252346
H59	H	0.190800	0.731900	0.626800	0.131299
H60	H	0.082600	0.685300	0.690200	0.131299
C1	C	0.181800	0.453100	0.932200	0.689927
C2	C	0.098200	0.352100	0.990400	-0.185453
C3	C	0.114200	0.447000	0.137600	-0.182201
C4	C	0.122600	0.560500	0.157200	0.722445
C5	C	0.271300	0.818200	0.932200	0.689927
C6	C	0.253900	0.901800	0.990400	-0.185453
C7	C	0.332800	0.885800	0.137600	-0.182201
C8	C	0.437900	0.877400	0.157200	0.722445
C9	C	0.546900	0.728700	0.932200	0.689927
C10	C	0.647900	0.746100	0.990400	-0.185453
C11	C	0.553000	0.667200	0.137600	-0.182201
C12	C	0.439500	0.562100	0.157200	0.722445
C13	C	0.728700	0.546900	0.567800	0.689927
C14	C	0.746100	0.647900	0.509600	-0.185453
C15	C	0.667200	0.553000	0.362400	-0.182201
C16	C	0.562100	0.439500	0.342800	0.722445
C17	C	0.453100	0.181800	0.567800	0.689927
C18	C	0.352100	0.098200	0.509600	-0.185453
C19	C	0.447000	0.114200	0.362400	-0.182201
C20	C	0.560500	0.122600	0.342800	0.722445
C21	C	0.818200	0.271300	0.567800	0.689927
C22	C	0.901800	0.253900	0.509600	-0.185453
C23	C	0.885800	0.332800	0.362400	-0.182201
C24	C	0.877400	0.437900	0.342800	0.722445
C25	C	0.818200	0.546900	0.067800	0.689927
C26	C	0.901800	0.647900	0.009600	-0.185453
C27	C	0.885800	0.553000	0.862400	-0.182201
C28	C	0.877400	0.439500	0.842800	0.722445
C29	C	0.728700	0.181800	0.067800	0.689927
C30	C	0.746100	0.098200	0.009600	-0.185453
C31	C	0.667200	0.114200	0.862400	-0.182201
C32	C	0.562100	0.122600	0.842800	0.722445
C33	C	0.453100	0.271300	0.067800	0.689927
C34	C	0.352100	0.253900	0.009600	-0.185453
C35	C	0.447000	0.332800	0.862400	-0.182201
C36	C	0.560500	0.437900	0.842800	0.722445
C37	C	0.271300	0.453100	0.432200	0.689927
C38	C	0.253900	0.352100	0.490400	-0.185453
C39	C	0.332800	0.447000	0.637600	-0.182201
C40	C	0.437900	0.560500	0.657200	0.722445
C41	C	0.546900	0.818200	0.432200	0.689927
C42	C	0.647900	0.901800	0.490400	-0.185453
C43	C	0.553000	0.885800	0.637600	-0.182201
C44	C	0.439500	0.877400	0.657200	0.722445
C45	C	0.181800	0.728700	0.432200	0.689927
C46	C	0.098200	0.746100	0.490400	-0.185453
C47	C	0.114200	0.667200	0.637600	-0.182201
C48	C	0.122600	0.562100	0.657200	0.722445
N1	N	0.041100	0.389400	0.058010	-0.269619
N2	N	0.348300	0.958900	0.058010	-0.269619
N3	N	0.610600	0.651700	0.058010	-0.269619
N4	N	0.651700	0.610600	0.441990	-0.269619
N5	N	0.389400	0.041100	0.441990	-0.269619
N6	N	0.958900	0.348300	0.441990	-0.269619
N7	N	0.958900	0.610600	0.941990	-0.269619
N8	N	0.651700	0.041100	0.941990	-0.269619
N9	N	0.389400	0.348300	0.941990	-0.269619
N10	N	0.348300	0.389400	0.558010	-0.269619
N11	N	0.610600	0.958900	0.558010	-0.269619
N12	N	0.041100	0.651700	0.558010	-0.269619
O1	O	0.242340	0.439020	0.875920	-0.702780
O2	O	0.184800	0.547800	0.943090	-0.702780
O3	O	0.074100	0.598000	0.105520	-0.558529
O4	O	0.178300	0.615000	0.225610	-0.709155
O5	O	0.196680	0.757660	0.875920	-0.702780
O6	O	0.363000	0.815200	0.943090	-0.702780
O7	O	0.523900	0.925900	0.105520	-0.558529
O8	O	0.436700	0.821700	0.225610	-0.709155
O9	O	0.560980	0.803320	0.875920	-0.702780
O10	O	0.452200	0.637000	0.943090	-0.702780
O11	O	0.402000	0.476100	0.105520	-0.558529
O12	O	0.385000	0.563300	0.225610	-0.709155
O13	O	0.803320	0.560980	0.624080	-0.702780
O14	O	0.637000	0.452200	0.556910	-0.702780
O15	O	0.476100	0.402000	0.394480	-0.558529
O16	O	0.563300	0.385000	0.274390	-0.709155
O17	O	0.439020	0.242340	0.624080	-0.702780
O18	O	0.547800	0.184800	0.556910	-0.702780
O19	O	0.598000	0.074100	0.394480	-0.558529
O20	O	0.615000	0.178300	0.274390	-0.709155
O21	O	0.757660	0.196680	0.624080	-0.702780
O22	O	0.815200	0.363000	0.556910	-0.702780
O23	O	0.925900	0.523900	0.394480	-0.558529
O24	O	0.821700	0.436700	0.274390	-0.709155
O25	O	0.757660	0.560980	0.124080	-0.702780
O26	O	0.815200	0.452200	0.056910	-0.702780
O27	O	0.925900	0.402000	0.894480	-0.558529
O28	O	0.821700	0.385000	0.774390	-0.709155
O29	O	0.803320	0.242340	0.124080	-0.702780
O30	O	0.637000	0.184800	0.056910	-0.702780
O31	O	0.476100	0.074100	0.894480	-0.558529
O32	O	0.563300	0.178300	0.774390	-0.709155
O33	O	0.439020	0.196680	0.124080	-0.702780
O34	O	0.547800	0.363000	0.056910	-0.702780
O35	O	0.598000	0.523900	0.894480	-0.558529
O36	O	0.615000	0.436700	0.774390	-0.709155
O37	O	0.196680	0.439020	0.375920	-0.702780
O38	O	0.363000	0.547800	0.443090	-0.702780
O39	O	0.523900	0.598000	0.605520	-0.558529
O40	O	0.436700	0.615000	0.725610	-0.709155
O41	O	0.560980	0.757660	0.375920	-0.702780
O42	O	0.452200	0.815200	0.443090	-0.702780
O43	O	0.402000	0.925900	0.605520	-0.558529
O44	O	0.385000	0.821700	0.725610	-0.709155
O45	O	0.242340	0.803320	0.375920	-0.702780
O46	O	0.184800	0.637000	0.443090	-0.702780
O47	O	0.074100	0.476100	0.605520	-0.558529
O48	O	0.178300	0.563300	0.725610	-0.709155
