data_XADCOW_manual_PM
_symmetry_space_group_name_H-M	'P1'
_cell_length_a	6.888300
_cell_length_b	21.291800
_cell_length_c	21.291800
_cell_angle_alpha	119.971000
_cell_angle_beta	90.000000
_cell_angle_gamma	90.000000
_symmetry_Int_Tables_number 1

loop_
_symmetry_equiv_pos_as_xyz
'x,y,z'

loop_
_atom_site_label
_atom_site_type_symbol
_atom_site_fract_x
_atom_site_fract_y
_atom_site_fract_z
_atom_site_charge
Fe1	Fe	0.500000	0.000000	0.000000	1.362051
Fe2	Fe	0.000000	0.000000	0.000000	1.362051
Fe3	Fe	0.500000	0.500000	0.000000	1.362051
Fe4	Fe	0.000000	0.500000	0.000000	1.362051
Fe5	Fe	0.000000	0.000000	0.500000	1.362051
Fe6	Fe	0.500000	0.000000	0.500000	1.362051
H1	H	0.539300	0.320000	0.787200	0.106339
H2	H	0.961800	0.786500	0.963700	0.106339
H3	H	0.958500	0.678800	0.964400	0.106339
H4	H	0.039300	0.680000	0.212800	0.106339
H5	H	0.461800	0.213500	0.036300	0.106339
H6	H	0.458500	0.321200	0.035600	0.106339
H7	H	0.960700	0.212800	0.680000	0.106339
H8	H	0.538200	0.036300	0.213500	0.106339
H9	H	0.541500	0.035600	0.321200	0.106339
H10	H	0.460700	0.787200	0.320000	0.106339
H11	H	0.038200	0.963700	0.786500	0.106339
H12	H	0.041500	0.964400	0.678800	0.106339
H13	H	0.460700	0.680000	0.212800	0.106339
H14	H	0.038200	0.213500	0.036300	0.106339
H15	H	0.041500	0.321200	0.035600	0.106339
H16	H	0.960700	0.320000	0.787200	0.106339
H17	H	0.538200	0.786500	0.963700	0.106339
H18	H	0.541500	0.678800	0.964400	0.106339
H19	H	0.039300	0.787200	0.320000	0.106339
H20	H	0.461800	0.963700	0.786500	0.106339
H21	H	0.458500	0.964400	0.678800	0.106339
H22	H	0.539300	0.212800	0.680000	0.106339
H23	H	0.961800	0.036300	0.213500	0.106339
H24	H	0.958500	0.035600	0.321200	0.106339
C1	C	0.422000	0.298300	0.765700	-0.062639
C2	C	0.078400	0.765200	0.965000	-0.062639
C3	C	0.076100	0.700800	0.965800	-0.062639
C4	C	0.922000	0.701700	0.234300	-0.062639
C5	C	0.578400	0.234800	0.035000	-0.062639
C6	C	0.576100	0.299200	0.034200	-0.062639
C7	C	0.078000	0.234300	0.701700	-0.062639
C8	C	0.421600	0.035000	0.234800	-0.062639
C9	C	0.423900	0.034200	0.299200	-0.062639
C10	C	0.578000	0.765700	0.298300	-0.062639
C11	C	0.921600	0.965000	0.765200	-0.062639
C12	C	0.923900	0.965800	0.700800	-0.062639
C13	C	0.578000	0.701700	0.234300	-0.062639
C14	C	0.921600	0.234800	0.035000	-0.062639
C15	C	0.923900	0.299200	0.034200	-0.062639
C16	C	0.078000	0.298300	0.765700	-0.062639
C17	C	0.421600	0.765200	0.965000	-0.062639
C18	C	0.423900	0.700800	0.965800	-0.062639
C19	C	0.922000	0.765700	0.298300	-0.062639
C20	C	0.578400	0.965000	0.765200	-0.062639
C21	C	0.576100	0.965800	0.700800	-0.062639
C22	C	0.422000	0.234300	0.701700	-0.062639
C23	C	0.078400	0.035000	0.234800	-0.062639
C24	C	0.076100	0.034200	0.299200	-0.062639
C25	C	0.250000	0.399200	0.873200	0.661927
C26	C	0.250000	0.331000	0.798800	-0.113461
C27	C	0.250000	0.871500	0.970300	0.661927
C28	C	0.250000	0.798300	0.966300	-0.113461
C29	C	0.250000	0.668900	0.968500	-0.113461
C30	C	0.250000	0.602000	0.976600	0.661927
C31	C	0.750000	0.600800	0.126800	0.661927
C32	C	0.750000	0.669000	0.201200	-0.113461
C33	C	0.750000	0.128500	0.029700	0.661927
C34	C	0.750000	0.201700	0.033700	-0.113461
C35	C	0.750000	0.331100	0.031500	-0.113461
C36	C	0.750000	0.398000	0.023400	0.661927
C37	C	0.250000	0.126800	0.600800	0.661927
C38	C	0.250000	0.201200	0.669000	-0.113461
C39	C	0.250000	0.029700	0.128500	0.661927
C40	C	0.250000	0.033700	0.201700	-0.113461
C41	C	0.250000	0.031500	0.331100	-0.113461
C42	C	0.250000	0.023400	0.398000	0.661927
C43	C	0.750000	0.873200	0.399200	0.661927
C44	C	0.750000	0.798800	0.331000	-0.113461
C45	C	0.750000	0.970300	0.871500	0.661927
C46	C	0.750000	0.966300	0.798300	-0.113461
C47	C	0.750000	0.968500	0.668900	-0.113461
C48	C	0.750000	0.976600	0.602000	0.661927
O1	O	0.412200	0.423970	0.900030	-0.515246
O2	O	0.413100	0.899470	0.973730	-0.515246
O3	O	0.413300	0.576880	0.977320	-0.515246
O4	O	0.912200	0.576030	0.099970	-0.515246
O5	O	0.913100	0.100530	0.026270	-0.515246
O6	O	0.913300	0.423120	0.022680	-0.515246
O7	O	0.087800	0.099970	0.576030	-0.515246
O8	O	0.086900	0.026270	0.100530	-0.515246
O9	O	0.086700	0.022680	0.423120	-0.515246
O10	O	0.587800	0.900030	0.423970	-0.515246
O11	O	0.586900	0.973730	0.899470	-0.515246
O12	O	0.586700	0.977320	0.576880	-0.515246
O13	O	0.587800	0.576030	0.099970	-0.515246
O14	O	0.586900	0.100530	0.026270	-0.515246
O15	O	0.586700	0.423120	0.022680	-0.515246
O16	O	0.087800	0.423970	0.900030	-0.515246
O17	O	0.086900	0.899470	0.973730	-0.515246
O18	O	0.086700	0.576880	0.977320	-0.515246
O19	O	0.912200	0.900030	0.423970	-0.515246
O20	O	0.913100	0.973730	0.899470	-0.515246
O21	O	0.913300	0.977320	0.576880	-0.515246
O22	O	0.412200	0.099970	0.576030	-0.515246
O23	O	0.413100	0.026270	0.100530	-0.515246
O24	O	0.413300	0.022680	0.423120	-0.515246
O25	O	0.750000	0.980100	0.019900	-0.572798
O26	O	0.250000	0.019900	0.980100	-0.572798
O27	O	0.750000	0.501500	0.956100	-0.572798
O28	O	0.250000	0.498500	0.043900	-0.572798
O29	O	0.750000	0.043900	0.498500	-0.572798
O30	O	0.250000	0.956100	0.501500	-0.572798
