data_XAFNOH_clean_PM
_symmetry_space_group_name_H-M	'P1'
_cell_length_a	7.781500
_cell_length_b	9.260000
_cell_length_c	25.543000
_cell_angle_alpha	90.000000
_cell_angle_beta	90.000000
_cell_angle_gamma	97.360000
_symmetry_Int_Tables_number 1

loop_
_symmetry_equiv_pos_as_xyz
'x,y,z'

loop_
_atom_site_label
_atom_site_type_symbol
_atom_site_fract_x
_atom_site_fract_y
_atom_site_fract_z
_atom_site_charge
Gd1	Gd	0.412770	0.487750	0.349400	2.175927
Gd2	Gd	0.087230	0.512250	0.849400	2.175927
Gd3	Gd	0.587230	0.512250	0.650600	2.175927
Gd4	Gd	0.912770	0.487750	0.150600	2.175927
Cu1	Cu	0.500000	0.000000	0.500000	0.786925
Cu2	Cu	0.000000	0.000000	0.000000	0.786925
C1	C	0.720400	0.403500	0.272000	0.762286
C2	C	0.662800	0.254100	0.295100	0.207373
C3	C	0.729100	0.130200	0.277200	-0.075132
C4	C	0.673100	0.997600	0.300900	0.122231
C5	C	0.552600	0.993200	0.341000	-0.206828
C6	C	0.493100	0.122100	0.356300	0.302083
C7	C	0.483900	0.852200	0.368000	0.761999
C8	C	0.697600	0.777300	0.492700	0.609974
C9	C	0.800200	0.904400	0.463300	0.142805
C10	C	0.948300	0.893500	0.435000	-0.065890
C11	C	0.030900	0.019000	0.411400	0.118005
C12	C	0.960100	0.149700	0.415200	-0.183566
C13	C	0.808100	0.150200	0.443000	0.201733
C14	C	0.042500	0.288100	0.389400	0.758399
C15	C	0.779600	0.596500	0.772000	0.762286
C16	C	0.837200	0.745900	0.795100	0.207373
C17	C	0.770900	0.869800	0.777200	-0.075132
C18	C	0.826900	0.002400	0.800900	0.122231
C19	C	0.947400	0.006800	0.841000	-0.206828
C20	C	0.006900	0.877900	0.856300	0.302083
C21	C	0.016100	0.147800	0.868000	0.761999
C22	C	0.802400	0.222700	0.992700	0.609974
C23	C	0.699800	0.095600	0.963300	0.142805
C24	C	0.551700	0.106500	0.935000	-0.065890
C25	C	0.469100	0.981000	0.911400	0.118005
C26	C	0.539900	0.850300	0.915200	-0.183566
C27	C	0.691900	0.849800	0.943000	0.201733
C28	C	0.457500	0.711900	0.889400	0.758399
C29	C	0.279600	0.596500	0.728000	0.762286
C30	C	0.337200	0.745900	0.704900	0.207373
C31	C	0.270900	0.869800	0.722800	-0.075132
C32	C	0.326900	0.002400	0.699100	0.122231
C33	C	0.447400	0.006800	0.659000	-0.206828
C34	C	0.506900	0.877900	0.643700	0.302083
C35	C	0.516100	0.147800	0.632000	0.761999
C36	C	0.302400	0.222700	0.507300	0.609974
C37	C	0.199800	0.095600	0.536700	0.142805
C38	C	0.051700	0.106500	0.565000	-0.065890
C39	C	0.969100	0.981000	0.588600	0.118005
C40	C	0.039900	0.850300	0.584800	-0.183566
C41	C	0.191900	0.849800	0.557000	0.201733
C42	C	0.957500	0.711900	0.610600	0.758399
C43	C	0.220400	0.403500	0.228000	0.762286
C44	C	0.162800	0.254100	0.204900	0.207373
C45	C	0.229100	0.130200	0.222800	-0.075132
C46	C	0.173100	0.997600	0.199100	0.122231
C47	C	0.052600	0.993200	0.159000	-0.206828
C48	C	0.993100	0.122100	0.143700	0.302083
C49	C	0.983900	0.852200	0.132000	0.761999
C50	C	0.197600	0.777300	0.007300	0.609974
C51	C	0.300200	0.904400	0.036700	0.142805
C52	C	0.448300	0.893500	0.065000	-0.065890
C53	C	0.530900	0.019000	0.088600	0.118005
C54	C	0.460100	0.149700	0.084800	-0.183566
C55	C	0.308100	0.150200	0.057000	0.201733
C56	C	0.542500	0.288100	0.110600	0.758399
N1	N	0.545200	0.250600	0.333500	-0.507998
N2	N	0.730100	0.030200	0.466600	-0.255681
N3	N	0.954800	0.749400	0.833500	-0.507998
N4	N	0.769900	0.969800	0.966600	-0.255681
N5	N	0.454800	0.749400	0.666500	-0.507998
N6	N	0.269900	0.969800	0.533400	-0.255681
N7	N	0.045200	0.250600	0.166500	-0.507998
N8	N	0.230100	0.030200	0.033400	-0.255681
O1	O	0.665200	0.509800	0.293540	-0.712104
O2	O	0.822100	0.409700	0.234340	-0.712104
O3	O	0.507600	0.736800	0.343400	-0.794087
O4	O	0.411200	0.858400	0.411170	-0.571785
O5	O	0.563300	0.808600	0.516600	-0.561491
O6	O	0.752200	0.657700	0.491620	-0.543740
O7	O	0.200600	0.295600	0.376700	-0.794087
O8	O	0.948200	0.385800	0.382900	-0.571785
O9	O	0.834800	0.490200	0.793540	-0.712104
O10	O	0.677900	0.590300	0.734340	-0.712104
O11	O	0.992400	0.263200	0.843400	-0.794087
O12	O	0.088800	0.141600	0.911170	-0.571785
O13	O	0.936700	0.191400	0.016600	-0.561491
O14	O	0.747800	0.342300	0.991620	-0.543740
O15	O	0.299400	0.704400	0.876700	-0.794087
O16	O	0.551800	0.614200	0.882900	-0.571785
O17	O	0.334800	0.490200	0.706460	-0.712104
O18	O	0.177900	0.590300	0.765660	-0.712104
O19	O	0.492400	0.263200	0.656600	-0.794087
O20	O	0.588800	0.141600	0.588830	-0.571785
O21	O	0.436700	0.191400	0.483400	-0.561491
O22	O	0.247800	0.342300	0.508380	-0.543740
O23	O	0.799400	0.704400	0.623300	-0.794087
O24	O	0.051800	0.614200	0.617100	-0.571785
O25	O	0.165200	0.509800	0.206460	-0.712104
O26	O	0.322100	0.409700	0.265660	-0.712104
O27	O	0.007600	0.736800	0.156600	-0.794087
O28	O	0.911200	0.858400	0.088830	-0.571785
O29	O	0.063300	0.808600	0.983400	-0.561491
O30	O	0.252200	0.657700	0.008380	-0.543740
O31	O	0.700600	0.295600	0.123300	-0.794087
O32	O	0.448200	0.385800	0.117100	-0.571785
