data_XAVQIU01_clean_PM
_symmetry_space_group_name_H-M	'P1'
_cell_length_a	10.107000
_cell_length_b	10.258000
_cell_length_c	16.276000
_cell_angle_alpha	90.000000
_cell_angle_beta	95.379998
_cell_angle_gamma	90.000000
_symmetry_Int_Tables_number 1

loop_
_symmetry_equiv_pos_as_xyz
'x,y,z'

loop_
_atom_site_label
_atom_site_type_symbol
_atom_site_fract_x
_atom_site_fract_y
_atom_site_fract_z
_atom_site_charge
Co1	Co	0.227000	0.253960	0.577630	1.051610
Co2	Co	0.773000	0.753960	0.922370	1.051610
Co3	Co	0.773000	0.746040	0.422370	1.051610
Co4	Co	0.227000	0.246040	0.077630	1.051610
Co5	Co	0.000000	0.000000	0.000000	1.118361
Co6	Co	0.000000	0.500000	0.500000	1.118361
H1	H	0.050600	0.640700	0.750300	0.105916
H2	H	0.436400	0.556800	0.736800	0.105978
H3	H	0.324800	0.774700	0.922900	0.105978
H4	H	0.949400	0.140700	0.749700	0.105916
H5	H	0.563600	0.056800	0.763200	0.105978
H6	H	0.675200	0.274700	0.577100	0.105978
H7	H	0.949400	0.359300	0.249700	0.105916
H8	H	0.563600	0.443200	0.263200	0.105978
H9	H	0.675200	0.225300	0.077100	0.105978
H10	H	0.050600	0.859300	0.250300	0.105916
H11	H	0.436400	0.943200	0.236800	0.105978
H12	H	0.324800	0.725300	0.422900	0.105978
C1	C	0.064200	0.779800	0.889700	0.695397
C2	C	0.170300	0.717000	0.844100	-0.170602
C3	C	0.138900	0.648000	0.771600	0.008521
C4	C	0.237700	0.589700	0.730400	-0.170602
C5	C	0.370200	0.598500	0.763000	0.016351
C6	C	0.403000	0.670000	0.834700	-0.154640
C7	C	0.302800	0.727800	0.874700	0.016351
C8	C	0.201100	0.516100	0.652100	0.695397
C9	C	0.545400	0.687600	0.867600	0.657728
C10	C	0.935800	0.279800	0.610300	0.695397
C11	C	0.829700	0.217000	0.655900	-0.170602
C12	C	0.861100	0.148000	0.728400	0.008521
C13	C	0.762300	0.089700	0.769600	-0.170602
C14	C	0.629800	0.098500	0.737000	0.016351
C15	C	0.597000	0.170000	0.665300	-0.154640
C16	C	0.697200	0.227800	0.625300	0.016351
C17	C	0.798900	0.016100	0.847900	0.695397
C18	C	0.454600	0.187600	0.632400	0.657728
C19	C	0.935800	0.220200	0.110300	0.695397
C20	C	0.829700	0.283000	0.155900	-0.170602
C21	C	0.861100	0.352000	0.228400	0.008521
C22	C	0.762300	0.410300	0.269600	-0.170602
C23	C	0.629800	0.401500	0.237000	0.016351
C24	C	0.597000	0.330000	0.165300	-0.154640
C25	C	0.697200	0.272200	0.125300	0.016351
C26	C	0.798900	0.483900	0.347900	0.695397
C27	C	0.454600	0.312400	0.132400	0.657728
C28	C	0.064200	0.720200	0.389700	0.695397
C29	C	0.170300	0.783000	0.344100	-0.170602
C30	C	0.138900	0.852000	0.271600	0.008521
C31	C	0.237700	0.910300	0.230400	-0.170602
C32	C	0.370200	0.901500	0.263000	0.016351
C33	C	0.403000	0.830000	0.334700	-0.154640
C34	C	0.302800	0.772200	0.374700	0.016351
C35	C	0.201100	0.983900	0.152100	0.695397
C36	C	0.545400	0.812400	0.367600	0.657728
O1	O	0.946800	0.746600	0.868900	-0.596744
O2	O	0.103200	0.860800	0.944500	-0.607699
O3	O	0.094000	0.550200	0.612100	-0.607699
O4	O	0.279500	0.428600	0.633300	-0.596744
O5	O	0.637100	0.661400	0.823500	-0.556839
O6	O	0.569500	0.732300	0.939600	-0.556839
O7	O	0.053200	0.246600	0.631100	-0.596744
O8	O	0.896800	0.360800	0.555500	-0.607699
O9	O	0.906000	0.050200	0.887900	-0.607699
O10	O	0.720500	0.928600	0.866700	-0.596744
O11	O	0.362900	0.161400	0.676500	-0.556839
O12	O	0.430500	0.232300	0.560400	-0.556839
O13	O	0.053200	0.253400	0.131100	-0.596744
O14	O	0.896800	0.139200	0.055500	-0.607699
O15	O	0.906000	0.449800	0.387900	-0.607699
O16	O	0.720500	0.571400	0.366700	-0.596744
O17	O	0.362900	0.338600	0.176500	-0.556839
O18	O	0.430500	0.267700	0.060400	-0.556839
O19	O	0.946800	0.753400	0.368900	-0.596744
O20	O	0.103200	0.639200	0.444500	-0.607699
O21	O	0.094000	0.949800	0.112100	-0.607699
O22	O	0.279500	0.071400	0.133300	-0.596744
O23	O	0.637100	0.838600	0.323500	-0.556839
O24	O	0.569500	0.767700	0.439600	-0.556839
