data_XEHFUL01_clean_PM
_symmetry_space_group_name_H-M	'P1'
_cell_length_a	7.817700
_cell_length_b	8.432200
_cell_length_c	9.484500
_cell_angle_alpha	90.000000
_cell_angle_beta	90.000000
_cell_angle_gamma	117.617002
_symmetry_Int_Tables_number 1

loop_
_symmetry_equiv_pos_as_xyz
'x,y,z'

loop_
_atom_site_label
_atom_site_type_symbol
_atom_site_fract_x
_atom_site_fract_y
_atom_site_fract_z
_atom_site_charge
Y1	Y	0.706800	0.413600	0.750000	2.086439
Y2	Y	0.292600	0.585200	0.750000	1.866749
Y3	Y	0.293200	0.586400	0.250000	2.086439
Y4	Y	0.707400	0.414800	0.250000	1.866749
C1	C	0.593000	0.986000	0.747000	0.544352
C2	C	0.083000	0.550000	0.497000	1.110999
C3	C	0.407000	0.014000	0.247000	0.544352
C4	C	0.917000	0.450000	0.997000	1.110999
C5	C	0.393000	0.986000	0.753000	0.544352
C6	C	0.467000	0.550000	0.003000	1.110999
C7	C	0.607000	0.014000	0.253000	0.544352
C8	C	0.533000	0.450000	0.503000	1.110999
O1	O	0.740000	0.142000	0.754000	-0.625346
O2	O	0.584500	0.837000	0.717000	-0.630193
O3	O	0.990000	0.474000	0.613000	-0.792135
O4	O	0.265100	0.629800	0.495000	-0.792135
O5	O	0.993000	0.526000	0.377000	-0.792135
O6	O	0.260000	0.858000	0.254000	-0.625346
O7	O	0.415500	0.163000	0.217000	-0.630193
O8	O	0.010000	0.526000	0.113000	-0.792135
O9	O	0.734900	0.370200	0.995000	-0.792135
O10	O	0.007000	0.474000	0.877000	-0.792135
O11	O	0.402000	0.142000	0.746000	-0.625346
O12	O	0.252500	0.837000	0.783000	-0.630193
O13	O	0.484000	0.474000	0.887000	-0.792135
O14	O	0.364700	0.629800	0.005000	-0.792135
O15	O	0.533000	0.526000	0.123000	-0.792135
O16	O	0.598000	0.858000	0.246000	-0.625346
O17	O	0.747500	0.163000	0.283000	-0.630193
O18	O	0.516000	0.526000	0.387000	-0.792135
O19	O	0.635300	0.370200	0.505000	-0.792135
O20	O	0.467000	0.474000	0.623000	-0.792135
