data_XIDBUJ_clean_PM
_symmetry_space_group_name_H-M	'P1'
_cell_length_a	11.721000
_cell_length_b	14.954600
_cell_length_c	14.954600
_cell_angle_alpha	96.448501
_cell_angle_beta	107.060002
_cell_angle_gamma	107.059998
_symmetry_Int_Tables_number 1

loop_
_symmetry_equiv_pos_as_xyz
'x,y,z'

loop_
_atom_site_label
_atom_site_type_symbol
_atom_site_fract_x
_atom_site_fract_y
_atom_site_fract_z
_atom_site_charge
Zn1	Zn	0.881900	0.805430	0.560810	0.911676
Zn2	Zn	0.881900	0.560810	0.805430	0.911676
Zn3	Zn	0.118100	0.439190	0.194570	0.911676
Zn4	Zn	0.118100	0.194570	0.439190	0.911676
H1	H	0.080500	0.740400	0.509800	0.082205
H2	H	0.293000	0.795700	0.530700	0.127395
H3	H	0.314800	0.050300	0.661500	0.127395
H4	H	0.104900	0.988700	0.639500	0.082205
H5	H	0.495500	0.846900	0.568500	0.118638
H6	H	0.807400	0.082600	0.657600	0.118638
H7	H	0.951600	0.379800	0.848000	0.082205
H8	H	0.871600	0.216500	0.795100	0.127395
H9	H	0.554900	0.243900	0.624500	0.127395
H10	H	0.644600	0.404900	0.678100	0.082205
H11	H	0.080500	0.509800	0.740400	0.082205
H12	H	0.293000	0.530700	0.795700	0.127395
H13	H	0.314800	0.661500	0.050300	0.127395
H14	H	0.104900	0.639500	0.988700	0.082205
H15	H	0.495500	0.568500	0.846900	0.118638
H16	H	0.807400	0.657600	0.082600	0.118638
H17	H	0.951600	0.848000	0.379800	0.082205
H18	H	0.871600	0.795100	0.216500	0.127395
H19	H	0.554900	0.624500	0.243900	0.127395
H20	H	0.644600	0.678100	0.404900	0.082205
H21	H	0.919500	0.490200	0.259600	0.082205
H22	H	0.707000	0.469300	0.204300	0.127395
H23	H	0.685200	0.338500	0.949700	0.127395
H24	H	0.895100	0.360500	0.011300	0.082205
H25	H	0.504500	0.431500	0.153100	0.118638
H26	H	0.192600	0.342400	0.917400	0.118638
H27	H	0.048400	0.152000	0.620200	0.082205
H28	H	0.128400	0.204900	0.783500	0.127395
H29	H	0.445100	0.375500	0.756100	0.127395
H30	H	0.355400	0.321900	0.595100	0.082205
H31	H	0.919500	0.259600	0.490200	0.082205
H32	H	0.707000	0.204300	0.469300	0.127395
H33	H	0.685200	0.949700	0.338500	0.127395
H34	H	0.895100	0.011300	0.360500	0.082205
H35	H	0.504500	0.153100	0.431500	0.118638
H36	H	0.192600	0.917400	0.342400	0.118638
H37	H	0.048400	0.620200	0.152000	0.082205
H38	H	0.128400	0.783500	0.204900	0.127395
H39	H	0.445100	0.756100	0.375500	0.127395
H40	H	0.355400	0.595100	0.321900	0.082205
C1	C	0.128600	0.803700	0.541300	0.165165
C2	C	0.256600	0.836600	0.553400	-0.179814
C3	C	0.330300	0.930400	0.599600	0.066235
C4	C	0.269500	0.986500	0.630700	-0.179814
C5	C	0.143100	0.949100	0.616900	0.165165
C6	C	0.468400	0.971100	0.613500	0.207368
C7	C	0.535900	0.912600	0.592200	-0.140910
C8	C	0.663800	0.955500	0.607100	-0.065631
C9	C	0.721000	0.052700	0.645300	-0.140910
C10	C	0.647900	0.105500	0.664900	0.207368
C11	C	0.871200	0.351800	0.801400	0.165165
C12	C	0.823600	0.253500	0.770500	-0.179814
C13	C	0.702900	0.210300	0.701900	0.066235
C14	C	0.636700	0.270000	0.669200	-0.179814
C15	C	0.690600	0.366500	0.702300	0.165165
C16	C	0.740400	0.896200	0.583400	0.646810
C17	C	0.128600	0.541300	0.803700	0.165165
C18	C	0.256600	0.553400	0.836600	-0.179814
C19	C	0.330300	0.599600	0.930400	0.066235
C20	C	0.269500	0.630700	0.986500	-0.179814
C21	C	0.143100	0.616900	0.949100	0.165165
C22	C	0.468400	0.613500	0.971100	0.207368
C23	C	0.535900	0.592200	0.912600	-0.140910
C24	C	0.663800	0.607100	0.955500	-0.065631
C25	C	0.721000	0.645300	0.052700	-0.140910
C26	C	0.647900	0.664900	0.105500	0.207368
C27	C	0.871200	0.801400	0.351800	0.165165
C28	C	0.823600	0.770500	0.253500	-0.179814
C29	C	0.702900	0.701900	0.210300	0.066235
C30	C	0.636700	0.669200	0.270000	-0.179814
C31	C	0.690600	0.702300	0.366500	0.165165
C32	C	0.740400	0.583400	0.896200	0.646810
C33	C	0.912400	0.727400	0.727400	0.492852
C34	C	0.866700	0.641800	0.641800	0.492852
C35	C	0.871400	0.458700	0.196300	0.165165
C36	C	0.743400	0.446600	0.163400	-0.179814
C37	C	0.669700	0.400400	0.069600	0.066235
C38	C	0.730500	0.369300	0.013500	-0.179814
C39	C	0.856900	0.383100	0.050900	0.165165
C40	C	0.531600	0.386500	0.028900	0.207368
C41	C	0.464100	0.407800	0.087400	-0.140910
C42	C	0.336200	0.392900	0.044500	-0.065631
C43	C	0.279000	0.354700	0.947300	-0.140910
C44	C	0.352100	0.335100	0.894500	0.207368
C45	C	0.128800	0.198600	0.648200	0.165165
C46	C	0.176400	0.229500	0.746500	-0.179814
C47	C	0.297100	0.298100	0.789700	0.066235
C48	C	0.363300	0.330800	0.730000	-0.179814
C49	C	0.309400	0.297700	0.633500	0.165165
C50	C	0.259600	0.416600	0.103800	0.646810
C51	C	0.871400	0.196300	0.458700	0.165165
C52	C	0.743400	0.163400	0.446600	-0.179814
C53	C	0.669700	0.069600	0.400400	0.066235
C54	C	0.730500	0.013500	0.369300	-0.179814
C55	C	0.856900	0.050900	0.383100	0.165165
C56	C	0.531600	0.028900	0.386500	0.207368
C57	C	0.464100	0.087400	0.407800	-0.140910
C58	C	0.336200	0.044500	0.392900	-0.065631
C59	C	0.279000	0.947300	0.354700	-0.140910
C60	C	0.352100	0.894500	0.335100	0.207368
C61	C	0.128800	0.648200	0.198600	0.165165
C62	C	0.176400	0.746500	0.229500	-0.179814
C63	C	0.297100	0.789700	0.298100	0.066235
C64	C	0.363300	0.730000	0.330800	-0.179814
C65	C	0.309400	0.633500	0.297700	0.165165
C66	C	0.259600	0.103800	0.416600	0.646810
C67	C	0.087600	0.272600	0.272600	0.492852
C68	C	0.133300	0.358200	0.358200	0.492852
N1	N	0.071600	0.858780	0.572780	-0.313468
N2	N	0.523000	0.065230	0.648370	-0.403883
N3	N	0.807400	0.408980	0.768080	-0.313468
N4	N	0.071600	0.572780	0.858780	-0.313468
N5	N	0.523000	0.648370	0.065230	-0.403883
N6	N	0.807400	0.768080	0.408980	-0.313468
N7	N	0.928400	0.427220	0.141220	-0.313468
N8	N	0.477000	0.351630	0.934770	-0.403883
N9	N	0.192600	0.231920	0.591020	-0.313468
N10	N	0.928400	0.141220	0.427220	-0.313468
N11	N	0.477000	0.934770	0.351630	-0.403883
N12	N	0.192600	0.591020	0.231920	-0.313468
O1	O	0.689800	0.807800	0.559600	-0.588218
O2	O	0.852000	0.939560	0.588280	-0.588218
O3	O	0.929300	0.808170	0.708650	-0.530458
O4	O	0.850000	0.659880	0.559820	-0.530458
O5	O	0.689800	0.559600	0.807800	-0.588218
O6	O	0.852000	0.588280	0.939560	-0.588218
O7	O	0.929300	0.708650	0.808170	-0.530458
O8	O	0.850000	0.559820	0.659880	-0.530458
O9	O	0.310200	0.440400	0.192200	-0.588218
O10	O	0.148000	0.411720	0.060440	-0.588218
O11	O	0.070700	0.291350	0.191830	-0.530458
O12	O	0.150000	0.440180	0.340120	-0.530458
O13	O	0.310200	0.192200	0.440400	-0.588218
O14	O	0.148000	0.060440	0.411720	-0.588218
O15	O	0.070700	0.191830	0.291350	-0.530458
O16	O	0.150000	0.340120	0.440180	-0.530458
