data_XINHOT_clean_PM
_symmetry_space_group_name_H-M	'P1'
_cell_length_a	12.389600
_cell_length_b	12.440100
_cell_length_c	16.578700
_cell_angle_alpha	83.980399
_cell_angle_beta	77.842899
_cell_angle_gamma	60.134301
_symmetry_Int_Tables_number 1

loop_
_symmetry_equiv_pos_as_xyz
'x,y,z'

loop_
_atom_site_label
_atom_site_type_symbol
_atom_site_fract_x
_atom_site_fract_y
_atom_site_fract_z
_atom_site_charge
La1	La	0.485280	0.093460	0.599920	2.149538
La2	La	0.421260	0.093460	0.900080	2.149538
La3	La	0.514720	0.906540	0.400080	2.149538
La4	La	0.578740	0.906540	0.099920	2.149538
H1	H	0.785800	0.664200	0.454500	0.105210
H2	H	0.070900	0.243800	0.645300	0.105210
H3	H	0.894300	0.252200	0.588300	0.103292
H4	H	0.882900	0.074800	0.112700	0.103292
H5	H	0.747800	0.078000	0.250900	0.105210
H6	H	0.918100	0.737000	0.629500	0.098252
H7	H	0.913400	0.459200	0.382900	0.103292
H8	H	0.049200	0.233800	0.889800	0.098252
H9	H	0.862600	0.074200	0.457700	0.098252
H10	H	0.808900	0.585400	0.770400	0.079761
H11	H	0.691000	0.597400	0.836400	0.079761
H12	H	0.703500	0.788600	0.826200	0.279102
H13	H	0.550000	0.664200	0.045500	0.105210
H14	H	0.685300	0.243800	0.854700	0.105210
H15	H	0.853500	0.252200	0.911700	0.103292
H16	H	0.042300	0.074800	0.387300	0.103292
H17	H	0.174200	0.078000	0.249100	0.105210
H18	H	0.344900	0.737000	0.870500	0.098252
H19	H	0.627400	0.459200	0.117100	0.103292
H20	H	0.717000	0.233800	0.610200	0.098252
H21	H	0.063200	0.074200	0.042300	0.098252
H22	H	0.605700	0.585400	0.729600	0.079761
H23	H	0.711600	0.597400	0.663600	0.079761
H24	H	0.507900	0.788600	0.673800	0.279102
H25	H	0.214200	0.335800	0.545500	0.105210
H26	H	0.929100	0.756200	0.354700	0.105210
H27	H	0.105700	0.747800	0.411700	0.103292
H28	H	0.117100	0.925200	0.887300	0.103292
H29	H	0.252200	0.922000	0.749100	0.105210
H30	H	0.081900	0.263000	0.370500	0.098252
H31	H	0.086600	0.540800	0.617100	0.103292
H32	H	0.950800	0.766200	0.110200	0.098252
H33	H	0.137400	0.925800	0.542300	0.098252
H34	H	0.191100	0.414600	0.229600	0.079761
H35	H	0.309000	0.402600	0.163600	0.079761
H36	H	0.296500	0.211400	0.173800	0.279102
H37	H	0.450000	0.335800	0.954500	0.105210
H38	H	0.314700	0.756200	0.145300	0.105210
H39	H	0.146500	0.747800	0.088300	0.103292
H40	H	0.957700	0.925200	0.612700	0.103292
H41	H	0.825800	0.922000	0.750900	0.105210
H42	H	0.655100	0.263000	0.129500	0.098252
H43	H	0.372600	0.540800	0.882900	0.103292
H44	H	0.283000	0.766200	0.389800	0.098252
H45	H	0.936800	0.925800	0.957700	0.098252
H46	H	0.394300	0.414600	0.270400	0.079761
H47	H	0.288400	0.402600	0.336400	0.079761
H48	H	0.492100	0.211400	0.326200	0.279102
C1	C	0.718600	0.843400	0.555600	0.721690
C2	C	0.833300	0.718400	0.542300	-0.141515
C3	C	0.953200	0.518400	0.475600	0.033279
C4	C	0.080200	0.234400	0.765100	-0.132249
C5	C	0.214400	0.211800	0.751400	0.740605
C6	C	0.847500	0.639000	0.486700	-0.065801
C7	C	0.027800	0.242600	0.698300	-0.069315
C8	C	0.855200	0.247200	0.641900	-0.148281
C9	C	0.939900	0.075400	0.141000	-0.148281
C10	C	0.672200	0.075600	0.410300	0.740605
C11	C	0.787900	0.076200	0.360200	-0.132249
C12	C	0.807500	0.077200	0.277200	-0.069315
C13	C	0.917500	0.076800	0.228400	0.033279
C14	C	0.907500	0.249200	0.709700	0.033279
C15	C	0.926100	0.682200	0.591700	-0.021653
C16	C	0.972300	0.434400	0.417100	-0.148281
C17	C	0.013300	0.238000	0.844900	-0.024860
C18	C	0.877200	0.075200	0.400300	-0.024860
C19	C	0.717400	0.632000	0.786000	0.010655
C20	C	0.438000	0.843400	0.944400	0.721690
C21	C	0.448300	0.718400	0.957700	-0.141515
C22	C	0.528400	0.518400	0.024400	0.033279
C23	C	0.685400	0.234400	0.734900	-0.132249
C24	C	0.573800	0.211800	0.748600	0.740605
C25	C	0.513500	0.639000	0.013300	-0.065801
C26	C	0.729600	0.242600	0.801700	-0.069315
C27	C	0.897600	0.247200	0.858100	-0.148281
C28	C	0.984700	0.075400	0.359000	-0.148281
C29	C	0.252200	0.075600	0.089700	0.740605
C30	C	0.135900	0.076200	0.139800	-0.132249
C31	C	0.115300	0.077200	0.222800	-0.069315
C32	C	0.005700	0.076800	0.271600	0.033279
C33	C	0.843300	0.249200	0.790300	0.033279
C34	C	0.391700	0.682200	0.908300	-0.021653
C35	C	0.593300	0.434400	0.082900	-0.148281
C36	C	0.748700	0.238000	0.655100	-0.024860
C37	C	0.047600	0.075200	0.099700	-0.024860
C38	C	0.650600	0.632000	0.714000	0.010655
C39	C	0.281400	0.156600	0.444400	0.721690
C40	C	0.166700	0.281600	0.457700	-0.141515
C41	C	0.046800	0.481600	0.524400	0.033279
C42	C	0.919800	0.765600	0.234900	-0.132249
C43	C	0.785600	0.788200	0.248600	0.740605
C44	C	0.152500	0.361000	0.513300	-0.065801
C45	C	0.972200	0.757400	0.301700	-0.069315
C46	C	0.144800	0.752800	0.358100	-0.148281
C47	C	0.060100	0.924600	0.859000	-0.148281
C48	C	0.327800	0.924400	0.589700	0.740605
C49	C	0.212100	0.923800	0.639800	-0.132249
C50	C	0.192500	0.922800	0.722800	-0.069315
C51	C	0.082500	0.923200	0.771600	0.033279
C52	C	0.092500	0.750800	0.290300	0.033279
C53	C	0.073900	0.317800	0.408300	-0.021653
C54	C	0.027700	0.565600	0.582900	-0.148281
C55	C	0.986700	0.762000	0.155100	-0.024860
C56	C	0.122800	0.924800	0.599700	-0.024860
C57	C	0.282600	0.368000	0.214000	0.010655
C58	C	0.562000	0.156600	0.055600	0.721690
C59	C	0.551700	0.281600	0.042300	-0.141515
C60	C	0.471600	0.481600	0.975600	0.033279
C61	C	0.314600	0.765600	0.265100	-0.132249
C62	C	0.426200	0.788200	0.251400	0.740605
C63	C	0.486500	0.361000	0.986700	-0.065801
C64	C	0.270400	0.757400	0.198300	-0.069315
C65	C	0.102400	0.752800	0.141900	-0.148281
C66	C	0.015300	0.924600	0.641000	-0.148281
C67	C	0.747800	0.924400	0.910300	0.740605
C68	C	0.864100	0.923800	0.860200	-0.132249
C69	C	0.884700	0.922800	0.777200	-0.069315
C70	C	0.994300	0.923200	0.728400	0.033279
C71	C	0.156700	0.750800	0.209700	0.033279
C72	C	0.608300	0.317800	0.091700	-0.021653
C73	C	0.406700	0.565600	0.917100	-0.148281
C74	C	0.251300	0.762000	0.344900	-0.024860
C75	C	0.952400	0.924800	0.900300	-0.024860
C76	C	0.349400	0.368000	0.286000	0.010655
C77	C	0.579500	0.841000	0.750000	0.705093
C78	C	0.420500	0.159000	0.250000	0.705093
N1	N	0.674100	0.761800	0.795400	-0.357277
N2	N	0.564100	0.761800	0.704600	-0.357277
N3	N	0.325900	0.238200	0.204600	-0.357277
N4	N	0.435900	0.238200	0.295400	-0.357277
O1	O	0.634040	0.876120	0.513000	-0.819291
O2	O	0.707200	0.913200	0.609900	-0.642013
O3	O	0.268500	0.218800	0.681300	-0.708025
O4	O	0.261500	0.190200	0.814500	-0.708025
O5	O	0.641400	0.107600	0.483600	-0.708025
O6	O	0.611400	0.045200	0.374100	-0.708025
O7	O	0.489840	0.876120	0.987000	-0.819291
O8	O	0.379600	0.913200	0.890100	-0.642013
O9	O	0.512700	0.218800	0.818700	-0.708025
O10	O	0.548300	0.190200	0.685500	-0.708025
O11	O	0.251000	0.107600	0.016400	-0.708025
O12	O	0.343400	0.045200	0.125900	-0.708025
O13	O	0.365960	0.123880	0.487000	-0.819291
O14	O	0.292800	0.086800	0.390100	-0.642013
O15	O	0.731500	0.781200	0.318700	-0.708025
O16	O	0.738500	0.809800	0.185500	-0.708025
O17	O	0.358600	0.892400	0.516400	-0.708025
O18	O	0.388600	0.954800	0.625900	-0.708025
O19	O	0.510160	0.123880	0.013000	-0.819291
O20	O	0.620400	0.086800	0.109900	-0.642013
O21	O	0.487300	0.781200	0.181300	-0.708025
O22	O	0.451700	0.809800	0.314500	-0.708025
O23	O	0.749000	0.892400	0.983600	-0.708025
O24	O	0.656600	0.954800	0.874100	-0.708025
O25	O	0.514000	0.972000	0.750000	-0.794043
O26	O	0.486000	0.028000	0.250000	-0.794043
