data_XOBXIW_clean_PM
_symmetry_space_group_name_H-M	'P1'
_cell_length_a	9.776300
_cell_length_b	11.148700
_cell_length_c	14.364300
_cell_angle_alpha	91.388300
_cell_angle_beta	90.000000
_cell_angle_gamma	90.000000
_symmetry_Int_Tables_number 1

loop_
_symmetry_equiv_pos_as_xyz
'x,y,z'

loop_
_atom_site_label
_atom_site_type_symbol
_atom_site_fract_x
_atom_site_fract_y
_atom_site_fract_z
_atom_site_charge
Ni1	Ni	0.923610	0.244420	0.364910	1.083378
Ni2	Ni	0.617310	0.240960	0.307740	1.048250
Ni3	Ni	0.423610	0.255580	0.135090	1.083378
Ni4	Ni	0.117310	0.259040	0.192260	1.048250
Ni5	Ni	0.076390	0.755580	0.635090	1.083378
Ni6	Ni	0.382690	0.759040	0.692260	1.048250
Ni7	Ni	0.576390	0.744420	0.864910	1.083378
Ni8	Ni	0.882690	0.740960	0.807740	1.048250
Ni9	Ni	0.000000	0.500000	0.500000	1.026463
Ni10	Ni	0.500000	0.000000	0.000000	1.026463
Ni11	Ni	0.000000	0.000000	0.500000	1.026463
Ni12	Ni	0.500000	0.500000	0.000000	1.026463
H1	H	0.707100	0.009900	0.486000	0.021074
H2	H	0.622100	0.444000	0.451800	0.021074
H3	H	0.194100	0.017300	0.270800	0.021074
H4	H	0.764400	0.145500	0.129000	0.021074
H5	H	0.156800	0.303200	0.571500	0.021074
H6	H	0.053200	0.522500	0.238600	0.021074
H7	H	0.207100	0.490100	0.014000	0.021074
H8	H	0.122100	0.056000	0.048200	0.021074
H9	H	0.694100	0.482700	0.229200	0.021074
H10	H	0.264400	0.354500	0.371000	0.021074
H11	H	0.656800	0.196800	0.928500	0.021074
H12	H	0.553200	0.977500	0.261400	0.021074
H13	H	0.292900	0.990100	0.514000	0.021074
H14	H	0.377900	0.556000	0.548200	0.021074
H15	H	0.805900	0.982700	0.729200	0.021074
H16	H	0.235600	0.854500	0.871000	0.021074
H17	H	0.843200	0.696800	0.428500	0.021074
H18	H	0.946800	0.477500	0.761400	0.021074
H19	H	0.792900	0.509900	0.986000	0.021074
H20	H	0.877900	0.944000	0.951800	0.021074
H21	H	0.305900	0.517300	0.770800	0.021074
H22	H	0.735600	0.645500	0.629000	0.021074
H23	H	0.343200	0.803200	0.071500	0.021074
H24	H	0.446800	0.022500	0.738600	0.021074
C1	C	0.725000	0.071700	0.445400	0.702063
C2	C	0.714900	0.427000	0.446200	0.698598
C3	C	0.133000	0.045250	0.316050	0.698598
C4	C	0.834500	0.172810	0.167810	0.705618
C5	C	0.102100	0.257640	0.531240	0.695003
C6	C	0.025400	0.481550	0.290950	0.698598
C7	C	0.225000	0.428300	0.054600	0.702063
C8	C	0.214900	0.073000	0.053800	0.698598
C9	C	0.633000	0.454750	0.183950	0.698598
C10	C	0.334500	0.327190	0.332190	0.705618
C11	C	0.602100	0.242360	0.968760	0.695003
C12	C	0.525400	0.018450	0.209050	0.698598
C13	C	0.275000	0.928300	0.554600	0.702063
C14	C	0.285100	0.573000	0.553800	0.698598
C15	C	0.867000	0.954750	0.683950	0.698598
C16	C	0.165500	0.827190	0.832190	0.705618
C17	C	0.897900	0.742360	0.468760	0.695003
C18	C	0.974600	0.518450	0.709050	0.698598
C19	C	0.775000	0.571700	0.945400	0.702063
C20	C	0.785100	0.927000	0.946200	0.698598
C21	C	0.367000	0.545250	0.816050	0.698598
C22	C	0.665500	0.672810	0.667810	0.705618
C23	C	0.397900	0.757640	0.031240	0.695003
C24	C	0.474600	0.981550	0.790950	0.698598
O1	O	0.849600	0.102900	0.437490	-0.675668
O2	O	0.625410	0.114390	0.405020	-0.574413
O3	O	0.805240	0.190050	0.253370	-0.681585
O4	O	0.748210	0.346350	0.386770	-0.681585
O5	O	0.085940	0.149730	0.305620	-0.681585
O6	O	0.010960	0.369300	0.281530	-0.681585
O7	O	0.025070	0.315210	0.475930	-0.675668
O8	O	0.947660	0.188950	0.131250	-0.574413
O9	O	0.006300	0.542040	0.362240	-0.564128
O10	O	0.793110	0.485320	0.497420	-0.564128
O11	O	0.107200	0.976620	0.379000	-0.564128
O12	O	0.110950	0.147900	0.536540	-0.564128
O13	O	0.349600	0.397100	0.062510	-0.675668
O14	O	0.125410	0.385610	0.094980	-0.574413
O15	O	0.305240	0.309950	0.246630	-0.681585
O16	O	0.248210	0.153650	0.113230	-0.681585
O17	O	0.585940	0.350270	0.194380	-0.681585
O18	O	0.510960	0.130700	0.218470	-0.681585
O19	O	0.525070	0.184790	0.024070	-0.675668
O20	O	0.447660	0.311050	0.368750	-0.574413
O21	O	0.506300	0.957960	0.137760	-0.564128
O22	O	0.293110	0.014680	0.002580	-0.564128
O23	O	0.607200	0.523380	0.121000	-0.564128
O24	O	0.610950	0.352100	0.963460	-0.564128
O25	O	0.150400	0.897100	0.562510	-0.675668
O26	O	0.374590	0.885610	0.594980	-0.574413
O27	O	0.194760	0.809950	0.746630	-0.681585
O28	O	0.251790	0.653650	0.613230	-0.681585
O29	O	0.914060	0.850270	0.694380	-0.681585
O30	O	0.989040	0.630700	0.718470	-0.681585
O31	O	0.974930	0.684790	0.524070	-0.675668
O32	O	0.052340	0.811050	0.868750	-0.574413
O33	O	0.993700	0.457960	0.637760	-0.564128
O34	O	0.206890	0.514680	0.502580	-0.564128
O35	O	0.892800	0.023380	0.621000	-0.564128
O36	O	0.889050	0.852100	0.463460	-0.564128
O37	O	0.650400	0.602900	0.937490	-0.675668
O38	O	0.874590	0.614390	0.905020	-0.574413
O39	O	0.694760	0.690050	0.753370	-0.681585
O40	O	0.751790	0.846350	0.886770	-0.681585
O41	O	0.414060	0.649730	0.805620	-0.681585
O42	O	0.489040	0.869300	0.781530	-0.681585
O43	O	0.474930	0.815210	0.975930	-0.675668
O44	O	0.552340	0.688950	0.631250	-0.574413
O45	O	0.493700	0.042040	0.862240	-0.564128
O46	O	0.706890	0.985320	0.997420	-0.564128
O47	O	0.392800	0.476620	0.879000	-0.564128
O48	O	0.389050	0.647900	0.036540	-0.564128
