data_XOVXAI_clean_PM
_symmetry_space_group_name_H-M	'P1'
_cell_length_a	11.098000
_cell_length_b	11.194000
_cell_length_c	16.587000
_cell_angle_alpha	99.085002
_cell_angle_beta	109.295998
_cell_angle_gamma	91.098002
_symmetry_Int_Tables_number 1

loop_
_symmetry_equiv_pos_as_xyz
'x,y,z'

loop_
_atom_site_label
_atom_site_type_symbol
_atom_site_fract_x
_atom_site_fract_y
_atom_site_fract_z
_atom_site_charge
Co1	Co	0.177740	0.866590	0.250960	1.145364
Co2	Co	0.201190	0.708160	0.048740	1.105776
Co3	Co	0.920640	0.767260	0.035970	1.149991
Co4	Co	0.241460	0.081150	0.456320	1.149991
Co5	Co	0.172490	0.809430	0.460570	1.105776
Co6	Co	0.822260	0.133410	0.749040	1.145364
Co7	Co	0.798810	0.291840	0.951260	1.105776
Co8	Co	0.079360	0.232740	0.964030	1.149991
Co9	Co	0.758540	0.918850	0.543680	1.149991
Co10	Co	0.827510	0.190570	0.539430	1.105776
H1	H	0.568600	0.055100	0.358400	0.139250
H2	H	0.496100	0.027000	0.204700	0.129494
H3	H	0.635100	0.972400	0.137300	0.102409
H4	H	0.890800	0.660800	0.366100	0.139841
H5	H	0.803200	0.619300	0.218300	0.129494
H6	H	0.593700	0.671100	0.154000	0.102409
H7	H	0.977300	0.174100	0.142100	0.139250
H8	H	0.003700	0.217100	0.289500	0.129494
H9	H	0.067000	0.415400	0.365000	0.102409
H10	H	0.365200	0.500500	0.151200	0.139841
H11	H	0.431600	0.522900	0.302700	0.129494
H12	H	0.382100	0.360400	0.360700	0.102409
H13	H	0.326900	0.895500	0.404600	0.434899
H14	H	0.122600	0.898000	0.095700	0.434899
H15	H	0.431400	0.944900	0.641600	0.139250
H16	H	0.503900	0.973000	0.795300	0.129494
H17	H	0.364900	0.027600	0.862700	0.102409
H18	H	0.109200	0.339200	0.633900	0.139841
H19	H	0.196800	0.380700	0.781700	0.129494
H20	H	0.406300	0.328900	0.846000	0.102409
H21	H	0.022700	0.825900	0.857900	0.139250
H22	H	0.996300	0.782900	0.710500	0.129494
H23	H	0.933000	0.584600	0.635000	0.102409
H24	H	0.634800	0.499500	0.848800	0.139841
H25	H	0.568400	0.477100	0.697300	0.129494
H26	H	0.617900	0.639600	0.639300	0.102409
H27	H	0.673100	0.104500	0.595400	0.434899
H28	H	0.877400	0.102000	0.904300	0.434899
C1	C	0.622700	0.032500	0.327100	-0.010729
C2	C	0.580200	0.015700	0.236500	-0.090389
C3	C	0.664500	0.983000	0.197600	-0.004598
C4	C	0.788900	0.963400	0.236200	-0.122995
C5	C	0.836500	0.987000	0.324700	-0.062766
C6	C	0.967500	0.973600	0.379900	0.673195
C7	C	0.879100	0.913000	0.190800	0.685008
C8	C	0.805900	0.676300	0.340100	-0.039655
C9	C	0.755900	0.653200	0.252000	-0.084852
C10	C	0.629600	0.682700	0.214100	-0.004598
C11	C	0.557700	0.728200	0.263300	-0.129672
C12	C	0.612400	0.741600	0.353400	-0.036018
C13	C	0.545500	0.777200	0.418700	0.621374
C14	C	0.421600	0.755600	0.220600	0.701225
C15	C	0.994700	0.253600	0.172000	-0.010729
C16	C	0.014000	0.278800	0.260300	-0.090389
C17	C	0.049400	0.399300	0.305300	-0.004598
C18	C	0.057900	0.488500	0.265100	-0.130185
C19	C	0.034700	0.462200	0.171300	-0.062766
C20	C	0.041300	0.555300	0.115600	0.673195
C21	C	0.102300	0.617100	0.305200	0.701225
C22	C	0.355800	0.435000	0.177400	-0.039655
C23	C	0.391200	0.450600	0.267200	-0.084852
C24	C	0.362700	0.351300	0.300900	-0.004598
C25	C	0.308100	0.242100	0.252000	-0.122698
C26	C	0.282600	0.226200	0.159800	-0.036018
C27	C	0.239800	0.116300	0.094900	0.621374
C28	C	0.275100	0.141500	0.289700	0.685008
C29	C	0.377300	0.967500	0.672900	-0.010729
C30	C	0.419800	0.984300	0.763500	-0.090389
C31	C	0.335500	0.017000	0.802400	-0.004598
C32	C	0.211100	0.036600	0.763800	-0.122995
C33	C	0.163500	0.013000	0.675300	-0.062766
C34	C	0.032500	0.026400	0.620100	0.673195
C35	C	0.120900	0.087000	0.809200	0.685008
C36	C	0.194100	0.323700	0.659900	-0.039655
C37	C	0.244100	0.346800	0.748000	-0.084852
C38	C	0.370400	0.317300	0.785900	-0.004598
C39	C	0.442300	0.271800	0.736700	-0.129672
C40	C	0.387600	0.258400	0.646600	-0.036018
C41	C	0.454500	0.222800	0.581300	0.621374
C42	C	0.578400	0.244400	0.779400	0.701225
C43	C	0.005300	0.746400	0.828000	-0.010729
C44	C	0.986000	0.721200	0.739700	-0.090389
C45	C	0.950600	0.600700	0.694700	-0.004598
C46	C	0.942100	0.511500	0.734900	-0.130185
C47	C	0.965300	0.537800	0.828700	-0.062766
C48	C	0.958700	0.444700	0.884400	0.673195
C49	C	0.897700	0.382900	0.694800	0.701225
C50	C	0.644200	0.565000	0.822600	-0.039655
C51	C	0.608800	0.549400	0.732800	-0.084852
C52	C	0.637300	0.648700	0.699100	-0.004598
C53	C	0.691900	0.757900	0.748000	-0.122698
C54	C	0.717400	0.773800	0.840200	-0.036018
C55	C	0.760200	0.883700	0.905100	0.621374
C56	C	0.724900	0.858500	0.710300	0.685008
N1	N	0.747600	0.013900	0.366900	0.321892
N2	N	0.737800	0.721600	0.393400	0.345141
N3	N	0.001700	0.345200	0.130700	0.321892
N4	N	0.306900	0.323800	0.127100	0.345141
N5	N	0.252400	0.986100	0.633100	0.321892
N6	N	0.262200	0.278400	0.606600	0.345141
N7	N	0.998300	0.654800	0.869300	0.321892
N8	N	0.693100	0.676200	0.872900	0.345141
O1	O	0.792300	0.027300	0.453500	-0.594170
O2	O	0.040100	0.069000	0.401700	-0.573626
O3	O	0.996000	0.872400	0.399700	-0.604151
O4	O	0.998500	0.931000	0.235000	-0.591993
O5	O	0.831900	0.855600	0.114100	-0.585817
O6	O	0.785800	0.743900	0.477200	-0.476511
O7	O	0.473700	0.693800	0.425100	-0.541724
O8	O	0.565100	0.887500	0.458700	-0.593932
O9	O	0.363200	0.808000	0.265600	-0.594840
O10	O	0.377900	0.721200	0.137100	-0.613687
O11	O	0.973500	0.320700	0.044000	-0.594170
O12	O	0.141400	0.567400	0.102500	-0.604151
O13	O	0.939600	0.611700	0.091600	-0.573626
O14	O	0.117200	0.691100	0.259500	-0.594840
O15	O	0.120700	0.641300	0.385700	-0.613687
O16	O	0.271900	0.317800	0.041500	-0.476511
O17	O	0.121400	0.101900	0.047900	-0.593932
O18	O	0.323100	0.046500	0.086300	-0.541724
O19	O	0.243400	0.039200	0.241900	-0.591993
O20	O	0.275400	0.166400	0.367800	-0.585817
O21	O	0.248000	0.908500	0.389700	-0.997248
O22	O	0.110700	0.830700	0.110600	-0.997248
O23	O	0.207700	0.972700	0.546500	-0.594170
O24	O	0.959900	0.931000	0.598300	-0.573626
O25	O	0.004000	0.127600	0.600300	-0.604151
O26	O	0.001500	0.069000	0.765000	-0.591993
O27	O	0.168100	0.144400	0.885900	-0.585817
O28	O	0.214200	0.256100	0.522800	-0.476511
O29	O	0.526300	0.306200	0.574900	-0.541724
O30	O	0.434900	0.112500	0.541300	-0.593932
O31	O	0.636800	0.192000	0.734400	-0.594840
O32	O	0.622100	0.278800	0.862900	-0.613687
O33	O	0.026500	0.679300	0.956000	-0.594170
O34	O	0.858600	0.432600	0.897500	-0.604151
O35	O	0.060400	0.388300	0.908400	-0.573626
O36	O	0.882800	0.308900	0.740500	-0.594840
O37	O	0.879300	0.358700	0.614300	-0.613687
O38	O	0.728100	0.682200	0.958500	-0.476511
O39	O	0.878600	0.898100	0.952100	-0.593932
O40	O	0.676900	0.953500	0.913700	-0.541724
O41	O	0.756600	0.960800	0.758100	-0.591993
O42	O	0.724600	0.833600	0.632200	-0.585817
O43	O	0.752000	0.091500	0.610300	-0.997248
O44	O	0.889300	0.169300	0.889400	-0.997248
