data_XOVYIR_clean_PM
_symmetry_space_group_name_H-M	'P1'
_cell_length_a	11.140000
_cell_length_b	11.249000
_cell_length_c	16.815000
_cell_angle_alpha	98.141001
_cell_angle_beta	108.841999
_cell_angle_gamma	91.333002
_symmetry_Int_Tables_number 1

loop_
_symmetry_equiv_pos_as_xyz
'x,y,z'

loop_
_atom_site_label
_atom_site_type_symbol
_atom_site_fract_x
_atom_site_fract_y
_atom_site_fract_z
_atom_site_charge
Mn1	Mn	0.582060	0.729380	0.962450	1.184155
Mn2	Mn	0.672740	0.301540	0.458030	1.265677
Mn3	Mn	0.746180	0.583990	0.456500	1.184155
Mn4	Mn	0.680380	0.365850	0.250450	1.174782
Mn5	Mn	0.292260	0.789960	0.951560	1.265677
Mn6	Mn	0.417940	0.270620	0.037550	1.184155
Mn7	Mn	0.327260	0.698460	0.541970	1.265677
Mn8	Mn	0.253820	0.416010	0.543500	1.184155
Mn9	Mn	0.319620	0.634150	0.749550	1.174782
Mn10	Mn	0.707740	0.210040	0.048440	1.265677
H1	H	0.874500	0.998700	0.145800	0.138231
H2	H	0.924000	0.024200	0.290200	0.128020
H3	H	0.874400	0.867900	0.354600	0.100921
H4	H	0.562900	0.904500	0.361100	0.100921
H5	H	0.500500	0.711800	0.287200	0.128020
H6	H	0.468300	0.675700	0.141000	0.137791
H7	H	0.867600	0.533500	0.865400	0.100921
H8	H	0.002400	0.473500	0.791800	0.128020
H9	H	0.928500	0.440900	0.643900	0.137791
H10	H	0.603600	0.839600	0.627500	0.138231
H11	H	0.691700	0.884500	0.776200	0.128020
H12	H	0.876400	0.799400	0.831800	0.100921
H13	H	0.834100	0.394600	0.406100	0.433584
H14	H	0.377000	0.597800	0.907200	0.433584
H15	H	0.125500	0.001300	0.854200	0.138231
H16	H	0.076000	0.975800	0.709800	0.128020
H17	H	0.125600	0.132100	0.645400	0.100921
H18	H	0.437100	0.095500	0.638900	0.100921
H19	H	0.499500	0.288200	0.712800	0.128020
H20	H	0.531700	0.324300	0.859000	0.137791
H21	H	0.132400	0.466500	0.134600	0.100921
H22	H	0.997600	0.526500	0.208200	0.128020
H23	H	0.071500	0.559100	0.356100	0.137791
H24	H	0.396400	0.160400	0.372500	0.138231
H25	H	0.308300	0.115500	0.223800	0.128020
H26	H	0.123600	0.200600	0.168200	0.100921
H27	H	0.165900	0.605400	0.593900	0.433584
H28	H	0.623000	0.402200	0.092800	0.433584
C1	C	0.859700	0.935400	0.172400	-0.047473
C2	C	0.887500	0.950600	0.257400	-0.087459
C3	C	0.861600	0.856000	0.296500	-0.002311
C4	C	0.816900	0.745200	0.247900	-0.134589
C5	C	0.780100	0.644700	0.288000	0.693075
C6	C	0.791300	0.728500	0.161300	-0.037190
C7	C	0.746600	0.613900	0.096800	0.623477
C8	C	0.538900	0.959600	0.172900	-0.073238
C9	C	0.540700	0.053100	0.118000	0.688049
C10	C	0.600500	0.110100	0.305400	0.717384
C11	C	0.559400	0.985000	0.258900	-0.138495
C12	C	0.546900	0.889500	0.302600	-0.002311
C13	C	0.511200	0.774500	0.259000	-0.093050
C14	C	0.491200	0.753100	0.171500	-0.020634
C15	C	0.532200	0.523700	0.618800	0.688049
C16	C	0.667300	0.511300	0.673900	-0.073238
C17	C	0.620200	0.584000	0.807300	0.693075
C18	C	0.710200	0.535400	0.762800	-0.130586
C19	C	0.837500	0.519800	0.806300	-0.002311
C20	C	0.918100	0.484600	0.762400	-0.093050
C21	C	0.874600	0.465400	0.674300	-0.020634
C22	C	0.687200	0.824800	0.655900	-0.047473
C23	C	0.735400	0.846400	0.742400	-0.087459
C24	C	0.852400	0.807500	0.774600	-0.002311
C25	C	0.937800	0.779200	0.737700	-0.142135
C26	C	0.071200	0.749000	0.781800	0.717384
C27	C	0.888300	0.760700	0.649100	-0.037190
C28	C	0.958600	0.726500	0.587900	0.623477
C29	C	0.140300	0.064600	0.827600	-0.047473
C30	C	0.112500	0.049400	0.742600	-0.087459
C31	C	0.138400	0.144000	0.703500	-0.002311
C32	C	0.183100	0.254800	0.752100	-0.134589
C33	C	0.219900	0.355300	0.712000	0.693075
C34	C	0.208700	0.271500	0.838700	-0.037190
C35	C	0.253400	0.386100	0.903200	0.623477
C36	C	0.461100	0.040400	0.827100	-0.073238
C37	C	0.459300	0.946900	0.882000	0.688049
C38	C	0.399500	0.889900	0.694600	0.717384
C39	C	0.440600	0.015000	0.741100	-0.138495
C40	C	0.453100	0.110500	0.697400	-0.002311
C41	C	0.488800	0.225500	0.741000	-0.093050
C42	C	0.508800	0.246900	0.828500	-0.020634
C43	C	0.467800	0.476300	0.381200	0.688049
C44	C	0.332700	0.488700	0.326100	-0.073238
C45	C	0.379800	0.416000	0.192700	0.693075
C46	C	0.289800	0.464600	0.237200	-0.130586
C47	C	0.162500	0.480200	0.193700	-0.002311
C48	C	0.081900	0.515400	0.237600	-0.093050
C49	C	0.125400	0.534600	0.325700	-0.020634
C50	C	0.312800	0.175200	0.344100	-0.047473
C51	C	0.264600	0.153600	0.257600	-0.087459
C52	C	0.147600	0.192500	0.225400	-0.002311
C53	C	0.062200	0.220800	0.262300	-0.142135
C54	C	0.928800	0.251000	0.218200	0.717384
C55	C	0.111700	0.239300	0.350900	-0.037190
C56	C	0.041400	0.273500	0.412100	0.623477
N1	N	0.809400	0.825500	0.125680	0.340575
N2	N	0.505400	0.845100	0.132400	0.312136
N3	N	0.751100	0.483100	0.633400	0.312136
N4	N	0.765100	0.780300	0.611400	0.340575
N5	N	0.190600	0.174500	0.874320	0.340575
N6	N	0.494600	0.154900	0.867600	0.312136
N7	N	0.248900	0.516900	0.366600	0.312136
N8	N	0.234900	0.219700	0.388600	0.340575
O1	O	0.778300	0.813000	0.041070	-0.459940
O2	O	0.630200	0.599200	0.055130	-0.615322
O3	O	0.830600	0.547500	0.089790	-0.556828
O4	O	0.748000	0.545100	0.242400	-0.613033
O5	O	0.788000	0.672800	0.364260	-0.613543
O6	O	0.481700	0.824300	0.048900	-0.601718
O7	O	0.638100	0.069300	0.100800	-0.637763
O8	O	0.440900	0.106800	0.092640	-0.600826
O9	O	0.618500	0.187500	0.264020	-0.615385
O10	O	0.613500	0.129700	0.382370	-0.651614
O11	O	0.709400	0.470400	0.547540	-0.601718
O12	O	0.461200	0.427700	0.596290	-0.600826
O13	O	0.505400	0.626300	0.601140	-0.637763
O14	O	0.504600	0.569700	0.764730	-0.613033
O15	O	0.671800	0.637500	0.882430	-0.613543
O16	O	0.717500	0.761900	0.525730	-0.459940
O17	O	0.112400	0.784100	0.860350	-0.651614
O18	O	0.128400	0.691800	0.737740	-0.615385
O19	O	0.025800	0.813000	0.580400	-0.556828
O20	O	0.940800	0.621400	0.548580	-0.615322
O21	O	0.755900	0.408200	0.391550	-0.976867
O22	O	0.388600	0.665100	0.892300	-0.976867
O23	O	0.221700	0.187000	0.958930	-0.459940
O24	O	0.369800	0.400800	0.944870	-0.615322
O25	O	0.169400	0.452500	0.910210	-0.556828
O26	O	0.252000	0.454900	0.757600	-0.613033
O27	O	0.212000	0.327200	0.635740	-0.613543
O28	O	0.518300	0.175700	0.951100	-0.601718
O29	O	0.361900	0.930700	0.899200	-0.637763
O30	O	0.559100	0.893200	0.907360	-0.600826
O31	O	0.381500	0.812500	0.735980	-0.615385
O32	O	0.386500	0.870300	0.617630	-0.651614
O33	O	0.290600	0.529600	0.452460	-0.601718
O34	O	0.538800	0.572300	0.403710	-0.600826
O35	O	0.494600	0.373700	0.398860	-0.637763
O36	O	0.495400	0.430300	0.235270	-0.613033
O37	O	0.328200	0.362500	0.117570	-0.613543
O38	O	0.282500	0.238100	0.474270	-0.459940
O39	O	0.887600	0.215900	0.139650	-0.651614
O40	O	0.871600	0.308200	0.262260	-0.615385
O41	O	0.974200	0.187000	0.419600	-0.556828
O42	O	0.059200	0.378600	0.451420	-0.615322
O43	O	0.244100	0.591800	0.608450	-0.976867
O44	O	0.611400	0.334900	0.107700	-0.976867
