data_YAZYEF_clean_PM
_symmetry_space_group_name_H-M	'P1'
_cell_length_a	6.810500
_cell_length_b	13.190000
_cell_length_c	16.380800
_cell_angle_alpha	113.740998
_cell_angle_beta	100.532002
_cell_angle_gamma	90.000000
_symmetry_Int_Tables_number 1

loop_
_symmetry_equiv_pos_as_xyz
'x,y,z'

loop_
_atom_site_label
_atom_site_type_symbol
_atom_site_fract_x
_atom_site_fract_y
_atom_site_fract_z
_atom_site_charge
La1	La	0.272090	0.302030	0.197600	2.170110
La2	La	0.227910	0.104430	0.802400	2.170110
La3	La	0.727910	0.697970	0.802400	2.170110
La4	La	0.772090	0.895570	0.197600	2.170110
H1	H	0.190700	0.433700	0.391400	0.414235
H2	H	0.505300	0.219400	0.654400	0.396637
H3	H	0.246700	0.519700	0.186800	0.414235
H4	H	0.363900	0.462900	0.532200	0.134390
H5	H	0.282900	0.082500	0.439600	0.130168
H6	H	0.857900	0.354500	0.865000	0.134390
H7	H	0.309300	0.042300	0.608600	0.414235
H8	H	0.994700	0.565000	0.345600	0.396637
H9	H	0.253300	0.332900	0.813200	0.414235
H10	H	0.136100	0.930700	0.467800	0.134390
H11	H	0.217100	0.642900	0.560400	0.130168
H12	H	0.642100	0.489500	0.135000	0.134390
H13	H	0.809300	0.566300	0.608600	0.414235
H14	H	0.494700	0.780600	0.345600	0.396637
H15	H	0.753300	0.480300	0.813200	0.414235
H16	H	0.636100	0.537100	0.467800	0.134390
H17	H	0.717100	0.917500	0.560400	0.130168
H18	H	0.142100	0.645500	0.135000	0.134390
H19	H	0.690700	0.957700	0.391400	0.414235
H20	H	0.005300	0.435000	0.654400	0.396637
H21	H	0.746700	0.667100	0.186800	0.414235
H22	H	0.863900	0.069300	0.532200	0.134390
H23	H	0.782900	0.357100	0.439600	0.130168
H24	H	0.357900	0.510500	0.865000	0.134390
C1	C	0.233300	0.204180	0.395360	-0.241497
C2	C	0.259000	0.320350	0.424900	0.343664
C3	C	0.348800	0.386240	0.513480	-0.164308
C4	C	0.417900	0.340440	0.576080	-0.184421
C5	C	0.389900	0.225610	0.547420	0.307705
C6	C	0.299500	0.158970	0.457940	-0.127376
C7	C	0.135900	0.126720	0.300040	0.784200
C8	C	0.525000	0.414620	0.670240	0.708918
C9	C	0.003200	0.389600	0.992600	-0.230702
C10	C	0.089800	0.479220	0.075240	0.343664
C11	C	0.915400	0.412930	0.919460	-0.143128
C12	C	0.012100	0.271080	0.978160	0.784200
C13	C	0.266700	0.808820	0.604640	-0.241497
C14	C	0.241000	0.895450	0.575100	0.343664
C15	C	0.151200	0.872760	0.486520	-0.164308
C16	C	0.082100	0.764360	0.423920	-0.184421
C17	C	0.110100	0.678190	0.452580	0.307705
C18	C	0.200500	0.701030	0.542060	-0.127376
C19	C	0.364100	0.826680	0.699960	0.784200
C20	C	0.975000	0.744380	0.329760	0.708918
C21	C	0.496800	0.397000	0.007400	-0.230702
C22	C	0.410200	0.403980	0.924760	0.343664
C23	C	0.584600	0.493470	0.080540	-0.143128
C24	C	0.487900	0.292920	0.021840	0.784200
C25	C	0.766700	0.795820	0.604640	-0.241497
C26	C	0.741000	0.679650	0.575100	0.343664
C27	C	0.651200	0.613760	0.486520	-0.164308
C28	C	0.582100	0.659560	0.423920	-0.184421
C29	C	0.610100	0.774390	0.452580	0.307705
C30	C	0.700500	0.841030	0.542060	-0.127376
C31	C	0.864100	0.873280	0.699960	0.784200
C32	C	0.475000	0.585380	0.329760	0.708918
C33	C	0.996800	0.610400	0.007400	-0.230702
C34	C	0.910200	0.520780	0.924760	0.343664
C35	C	0.084600	0.587070	0.080540	-0.143128
C36	C	0.987900	0.728920	0.021840	0.784200
C37	C	0.733300	0.191180	0.395360	-0.241497
C38	C	0.759000	0.104550	0.424900	0.343664
C39	C	0.848800	0.127240	0.513480	-0.164308
C40	C	0.917900	0.235640	0.576080	-0.184421
C41	C	0.889900	0.321810	0.547420	0.307705
C42	C	0.799500	0.298970	0.457940	-0.127376
C43	C	0.635900	0.173320	0.300040	0.784200
C44	C	0.025000	0.255620	0.670240	0.708918
C45	C	0.503200	0.603000	0.992600	-0.230702
C46	C	0.589800	0.596020	0.075240	0.343664
C47	C	0.415400	0.506530	0.919460	-0.143128
C48	C	0.512100	0.707080	0.978160	0.784200
O1	O	0.120100	0.159890	0.237100	-0.707446
O2	O	0.073300	0.030550	0.287400	-0.707446
O3	O	0.599900	0.368360	0.722120	-0.569611
O4	O	0.538300	0.517590	0.692760	-0.732312
O5	O	0.189500	0.366080	0.364020	-0.656051
O6	O	0.447500	0.173540	0.604500	-0.531271
O7	O	0.059300	0.244990	0.044880	-0.707446
O8	O	0.972100	0.198660	0.896260	-0.707446
O9	O	0.184200	0.461900	0.148760	-0.656051
O10	O	0.379900	0.922790	0.762900	-0.707446
O11	O	0.426700	0.743150	0.712600	-0.707446
O12	O	0.900100	0.646240	0.277880	-0.569611
O13	O	0.961700	0.824830	0.307240	-0.732312
O14	O	0.310500	0.002060	0.635980	-0.656051
O15	O	0.052500	0.569040	0.395500	-0.531271
O16	O	0.440700	0.200110	0.955120	-0.707446
O17	O	0.527900	0.302400	0.103740	-0.707446
O18	O	0.315800	0.313140	0.851240	-0.656051
O19	O	0.879900	0.840110	0.762900	-0.707446
O20	O	0.926700	0.969450	0.712600	-0.707446
O21	O	0.400100	0.631640	0.277880	-0.569611
O22	O	0.461700	0.482410	0.307240	-0.732312
O23	O	0.810500	0.633920	0.635980	-0.656051
O24	O	0.552500	0.826460	0.395500	-0.531271
O25	O	0.940700	0.755010	0.955120	-0.707446
O26	O	0.027900	0.801340	0.103740	-0.707446
O27	O	0.815800	0.538100	0.851240	-0.656051
O28	O	0.620100	0.077210	0.237100	-0.707446
O29	O	0.573300	0.256850	0.287400	-0.707446
O30	O	0.099900	0.353760	0.722120	-0.569611
O31	O	0.038300	0.175170	0.692760	-0.732312
O32	O	0.689500	0.997940	0.364020	-0.656051
O33	O	0.947500	0.430960	0.604500	-0.531271
O34	O	0.559300	0.799890	0.044880	-0.707446
O35	O	0.472100	0.697600	0.896260	-0.707446
O36	O	0.684200	0.686860	0.148760	-0.656051
