data_YICTUZ_clean_PM
_symmetry_space_group_name_H-M	'P1'
_cell_length_a	8.856000
_cell_length_b	9.069000
_cell_length_c	15.535000
_cell_angle_alpha	90.000000
_cell_angle_beta	90.000000
_cell_angle_gamma	114.430001
_symmetry_Int_Tables_number 1

loop_
_symmetry_equiv_pos_as_xyz
'x,y,z'

loop_
_atom_site_label
_atom_site_type_symbol
_atom_site_fract_x
_atom_site_fract_y
_atom_site_fract_z
_atom_site_charge
Np1	Np	0.247590	0.374320	0.358390	1.787361
Np2	Np	0.767850	0.643180	0.372640	1.787361
Np3	Np	0.252410	0.125680	0.858390	1.787361
Np4	Np	0.732150	0.856820	0.872640	1.787361
Np5	Np	0.752410	0.625680	0.641610	1.787361
Np6	Np	0.232150	0.356820	0.627360	1.787361
Np7	Np	0.747590	0.874320	0.141610	1.787361
Np8	Np	0.267850	0.143180	0.127360	1.787361
C1	C	0.129000	0.968000	0.420800	0.820538
C2	C	0.168000	0.706000	0.393600	0.820538
C3	C	0.194000	0.848000	0.455600	-0.244590
C4	C	0.371000	0.532000	0.920800	0.820538
C5	C	0.332000	0.794000	0.893600	0.820538
C6	C	0.306000	0.652000	0.955600	-0.244590
C7	C	0.871000	0.032000	0.579200	0.820538
C8	C	0.832000	0.294000	0.606400	0.820538
C9	C	0.806000	0.152000	0.544400	-0.244590
C10	C	0.629000	0.468000	0.079200	0.820538
C11	C	0.668000	0.206000	0.106400	0.820538
C12	C	0.694000	0.348000	0.044400	-0.244590
O1	O	0.474400	0.455900	0.371300	-0.770809
O2	O	0.784000	0.600000	0.487300	-0.770809
O3	O	0.755500	0.691800	0.258400	-0.770809
O4	O	0.228000	0.115200	0.422500	-0.664695
O5	O	0.980700	0.918200	0.395800	-0.664695
O6	O	0.280800	0.655900	0.392500	-0.664695
O7	O	0.040000	0.647000	0.350100	-0.664695
O8	O	0.025600	0.044100	0.871300	-0.770809
O9	O	0.716000	0.900000	0.987300	-0.770809
O10	O	0.744500	0.808200	0.758400	-0.770809
O11	O	0.272000	0.384800	0.922500	-0.664695
O12	O	0.519300	0.581800	0.895800	-0.664695
O13	O	0.219200	0.844100	0.892500	-0.664695
O14	O	0.460000	0.853000	0.850100	-0.664695
O15	O	0.525600	0.544100	0.628700	-0.770809
O16	O	0.216000	0.400000	0.512700	-0.770809
O17	O	0.244500	0.308200	0.741600	-0.770809
O18	O	0.772000	0.884800	0.577500	-0.664695
O19	O	0.019300	0.081800	0.604200	-0.664695
O20	O	0.719200	0.344100	0.607500	-0.664695
O21	O	0.960000	0.353000	0.649900	-0.664695
O22	O	0.974400	0.955900	0.128700	-0.770809
O23	O	0.284000	0.100000	0.012700	-0.770809
O24	O	0.255500	0.191800	0.241600	-0.770809
O25	O	0.728000	0.615200	0.077500	-0.664695
O26	O	0.480700	0.418200	0.104200	-0.664695
O27	O	0.780800	0.155900	0.107500	-0.664695
O28	O	0.540000	0.147000	0.149900	-0.664695
