data_YOPMAS_clean_PM
_symmetry_space_group_name_H-M	'P1'
_cell_length_a	11.058000
_cell_length_b	12.034000
_cell_length_c	16.167800
_cell_angle_alpha	99.946702
_cell_angle_beta	109.997002
_cell_angle_gamma	90.000000
_symmetry_Int_Tables_number 1

loop_
_symmetry_equiv_pos_as_xyz
'x,y,z'

loop_
_atom_site_label
_atom_site_type_symbol
_atom_site_fract_x
_atom_site_fract_y
_atom_site_fract_z
_atom_site_charge
Co1	Co	0.204750	0.528440	0.225720	0.915285
Co2	Co	0.979030	0.971560	0.774280	0.915285
Co3	Co	0.795250	0.471560	0.774280	0.915285
Co4	Co	0.020970	0.028440	0.225720	0.915285
Co5	Co	0.052440	0.750000	0.000000	1.114352
Co6	Co	0.947560	0.250000	0.000000	1.114352
H1	H	0.747900	0.405300	0.178200	0.099403
H2	H	0.658200	0.523800	0.265600	0.101317
H3	H	0.719800	0.715100	0.301800	0.099403
H4	H	0.374900	0.683500	0.168600	0.083461
H5	H	0.502600	0.671700	0.083600	0.130287
H6	H	0.365500	0.352000	0.982200	0.130287
H7	H	0.240400	0.372500	0.070600	0.083461
H8	H	0.094500	0.355100	0.302000	0.083461
H9	H	0.008500	0.339200	0.409200	0.130287
H10	H	0.056400	0.673200	0.487200	0.130287
H11	H	0.134100	0.680700	0.373600	0.083461
H12	H	0.569700	0.094700	0.821800	0.099403
H13	H	0.392600	0.976200	0.734400	0.101317
H14	H	0.418000	0.784900	0.698200	0.099403
H15	H	0.206300	0.816500	0.831400	0.083461
H16	H	0.419000	0.828300	0.916400	0.130287
H17	H	0.383300	0.148000	0.017800	0.130287
H18	H	0.169800	0.127500	0.929400	0.083461
H19	H	0.792500	0.144900	0.698000	0.083461
H20	H	0.599300	0.160800	0.590800	0.130287
H21	H	0.569200	0.826800	0.512800	0.130287
H22	H	0.760500	0.819300	0.626400	0.083461
H23	H	0.252100	0.594700	0.821800	0.099403
H24	H	0.341800	0.476200	0.734400	0.101317
H25	H	0.280200	0.284900	0.698200	0.099403
H26	H	0.625100	0.316500	0.831400	0.083461
H27	H	0.497400	0.328300	0.916400	0.130287
H28	H	0.634500	0.648000	0.017800	0.130287
H29	H	0.759600	0.627500	0.929400	0.083461
H30	H	0.905500	0.644900	0.698000	0.083461
H31	H	0.991500	0.660800	0.590800	0.130287
H32	H	0.943600	0.326800	0.512800	0.130287
H33	H	0.865900	0.319300	0.626400	0.083461
H34	H	0.430300	0.905300	0.178200	0.099403
H35	H	0.607400	0.023800	0.265600	0.101317
H36	H	0.582000	0.215100	0.301800	0.099403
H37	H	0.793700	0.183500	0.168600	0.083461
H38	H	0.581000	0.171700	0.083600	0.130287
H39	H	0.616700	0.852000	0.982200	0.130287
H40	H	0.830200	0.872500	0.070600	0.083461
H41	H	0.207500	0.855100	0.302000	0.083461
H42	H	0.400700	0.839200	0.409200	0.130287
H43	H	0.430800	0.173200	0.487200	0.130287
H44	H	0.239500	0.180700	0.373600	0.083461
C1	C	0.907700	0.636700	0.188200	-0.048082
C2	C	0.866400	0.521500	0.165200	-0.123843
C3	C	0.773900	0.481800	0.194000	-0.063076
C4	C	0.719300	0.552100	0.245600	-0.137010
C5	C	0.756900	0.666600	0.267200	-0.064053
C6	C	0.848100	0.709900	0.238800	-0.098161
C7	C	0.010000	0.678200	0.155000	0.669743
C8	C	0.925500	0.438700	0.112200	0.680834
C9	C	0.884800	0.834900	0.264600	0.642030
C10	C	0.374600	0.614800	0.131800	0.181960
C11	C	0.452400	0.608400	0.081400	-0.191313
C12	C	0.456000	0.505600	0.025800	0.091350
C13	C	0.371900	0.419900	0.021400	-0.191313
C14	C	0.295700	0.433100	0.074600	0.181960
C15	C	0.087200	0.420300	0.339800	0.181960
C16	C	0.036800	0.410200	0.405000	-0.191313
C17	C	0.027600	0.504000	0.464600	0.091350
C18	C	0.063800	0.606600	0.450800	-0.191313
C19	C	0.111300	0.610400	0.382400	0.181960
C20	C	0.719500	0.863300	0.811800	-0.048082
C21	C	0.701200	0.978500	0.834800	-0.123843
C22	C	0.579900	0.018200	0.806000	-0.063076
C23	C	0.473700	0.947900	0.754400	-0.137010
C24	C	0.489700	0.833400	0.732800	-0.064053
C25	C	0.609300	0.790100	0.761200	-0.098161
C26	C	0.855000	0.821800	0.845000	0.669743
C27	C	0.813300	0.061300	0.887800	0.680834
C28	C	0.620200	0.665100	0.735400	0.642030
C29	C	0.242800	0.885200	0.868200	0.181960
C30	C	0.371000	0.891600	0.918600	-0.191313
C31	C	0.430200	0.994400	0.974200	0.091350
C32	C	0.350500	0.080100	0.978600	-0.191313
C33	C	0.221100	0.066900	0.925400	0.181960
C34	C	0.747400	0.079700	0.660200	0.181960
C35	C	0.631800	0.089800	0.595000	-0.191313
C36	C	0.563000	0.996000	0.535400	0.091350
C37	C	0.613000	0.893400	0.549200	-0.191313
C38	C	0.728900	0.889600	0.617600	0.181960
C39	C	0.092300	0.363300	0.811800	-0.048082
C40	C	0.133600	0.478500	0.834800	-0.123843
C41	C	0.226100	0.518200	0.806000	-0.063076
C42	C	0.280700	0.447900	0.754400	-0.137010
C43	C	0.243100	0.333400	0.732800	-0.064053
C44	C	0.151900	0.290100	0.761200	-0.098161
C45	C	0.990000	0.321800	0.845000	0.669743
C46	C	0.074500	0.561300	0.887800	0.680834
C47	C	0.115200	0.165100	0.735400	0.642030
C48	C	0.625400	0.385200	0.868200	0.181960
C49	C	0.547600	0.391600	0.918600	-0.191313
C50	C	0.544000	0.494400	0.974200	0.091350
C51	C	0.628100	0.580100	0.978600	-0.191313
C52	C	0.704300	0.566900	0.925400	0.181960
C53	C	0.912800	0.579700	0.660200	0.181960
C54	C	0.963200	0.589800	0.595000	-0.191313
C55	C	0.972400	0.496000	0.535400	0.091350
C56	C	0.936200	0.393400	0.549200	-0.191313
C57	C	0.888700	0.389600	0.617600	0.181960
C58	C	0.280500	0.136700	0.188200	-0.048082
C59	C	0.298800	0.021500	0.165200	-0.123843
C60	C	0.420100	0.981800	0.194000	-0.063076
C61	C	0.526300	0.052100	0.245600	-0.137010
C62	C	0.510300	0.166600	0.267200	-0.064053
C63	C	0.390700	0.209900	0.238800	-0.098161
C64	C	0.145000	0.178200	0.155000	0.669743
C65	C	0.186700	0.938700	0.112200	0.680834
C66	C	0.379800	0.334900	0.264600	0.642030
C67	C	0.757200	0.114800	0.131800	0.181960
C68	C	0.629000	0.108400	0.081400	-0.191313
C69	C	0.569800	0.005600	0.025800	0.091350
C70	C	0.649500	0.919900	0.021400	-0.191313
C71	C	0.778900	0.933100	0.074600	0.181960
C72	C	0.252600	0.920300	0.339800	0.181960
C73	C	0.368200	0.910200	0.405000	-0.191313
C74	C	0.437000	0.004000	0.464600	0.091350
C75	C	0.387000	0.106600	0.450800	-0.191313
C76	C	0.271100	0.110400	0.382400	0.181960
N1	N	0.298300	0.528400	0.131800	-0.333060
N2	N	0.126100	0.519000	0.328800	-0.333060
N3	N	0.166500	0.971600	0.868200	-0.333060
N4	N	0.797300	0.981000	0.671200	-0.333060
N5	N	0.701700	0.471600	0.868200	-0.333060
N6	N	0.873900	0.481000	0.671200	-0.333060
N7	N	0.833500	0.028400	0.131800	-0.333060
N8	N	0.202700	0.019000	0.328800	-0.333060
O1	O	0.965640	0.699200	0.076880	-0.615083
O2	O	0.125980	0.681200	0.201760	-0.578274
O3	O	0.970330	0.868900	0.238260	-0.594252
O4	O	0.829900	0.896200	0.308600	-0.586110
O5	O	0.042210	0.450100	0.121420	-0.577352
O6	O	0.853400	0.356000	0.059600	-0.614054
O7	O	0.888760	0.800800	0.923120	-0.615083
O8	O	0.924220	0.818800	0.798240	-0.578274
O9	O	0.732070	0.631100	0.761740	-0.594252
O10	O	0.521300	0.603800	0.691400	-0.586110
O11	O	0.920790	0.049900	0.878580	-0.577352
O12	O	0.793800	0.144000	0.940400	-0.614054
O13	O	0.034360	0.300800	0.923120	-0.615083
O14	O	0.874020	0.318800	0.798240	-0.578274
O15	O	0.029670	0.131100	0.761740	-0.594252
O16	O	0.170100	0.103800	0.691400	-0.586110
O17	O	0.957790	0.549900	0.878580	-0.577352
O18	O	0.146600	0.644000	0.940400	-0.614054
O19	O	0.111240	0.199200	0.076880	-0.615083
O20	O	0.075780	0.181200	0.201760	-0.578274
O21	O	0.267930	0.368900	0.238260	-0.594252
O22	O	0.478700	0.396200	0.308600	-0.586110
O23	O	0.079210	0.950100	0.121420	-0.577352
O24	O	0.206200	0.856000	0.059600	-0.614054
