data_YUPSIM_clean_PM
_symmetry_space_group_name_H-M	'P1'
_cell_length_a	8.578500
_cell_length_b	13.823600
_cell_length_c	31.932200
_cell_angle_alpha	90.000000
_cell_angle_beta	90.000000
_cell_angle_gamma	90.000000
_symmetry_Int_Tables_number 1

loop_
_symmetry_equiv_pos_as_xyz
'x,y,z'

loop_
_atom_site_label
_atom_site_type_symbol
_atom_site_fract_x
_atom_site_fract_y
_atom_site_fract_z
_atom_site_charge
Pr1	Pr	0.921040	0.798730	0.103430	2.187539
Pr2	Pr	0.578960	0.298730	0.896570	2.187539
Pr3	Pr	0.078960	0.201270	0.603430	2.187539
Pr4	Pr	0.421040	0.701270	0.396570	2.187539
Pr5	Pr	0.078960	0.201270	0.896570	2.187539
Pr6	Pr	0.421040	0.701270	0.103430	2.187539
Pr7	Pr	0.921040	0.798730	0.396570	2.187539
Pr8	Pr	0.578960	0.298730	0.603430	2.187539
H1	H	0.887100	0.594800	0.187600	0.127963
H2	H	0.466700	0.980100	0.109900	0.129887
H3	H	0.590300	0.185500	0.028200	0.129887
H4	H	0.212100	0.024800	0.005900	0.106648
H5	H	0.679400	0.517200	0.226700	0.318728
H6	H	0.657100	0.174600	0.110600	0.299665
H7	H	0.690500	0.073700	0.119800	0.299665
H8	H	0.764100	0.120600	0.084200	0.299665
H9	H	0.612900	0.094800	0.812400	0.127963
H10	H	0.033300	0.480100	0.890100	0.129887
H11	H	0.909700	0.685500	0.971800	0.129887
H12	H	0.287900	0.524800	0.994100	0.106648
H13	H	0.820600	0.017200	0.773300	0.318728
H14	H	0.842900	0.674600	0.889400	0.299665
H15	H	0.809500	0.573700	0.880200	0.299665
H16	H	0.735900	0.620600	0.915800	0.299665
H17	H	0.112900	0.405200	0.687600	0.127963
H18	H	0.533300	0.019900	0.609900	0.129887
H19	H	0.409700	0.814500	0.528200	0.129887
H20	H	0.787900	0.975200	0.505900	0.106648
H21	H	0.320600	0.482800	0.726700	0.318728
H22	H	0.342900	0.825400	0.610600	0.299665
H23	H	0.309500	0.926300	0.619800	0.299665
H24	H	0.235900	0.879400	0.584200	0.299665
H25	H	0.387100	0.905200	0.312400	0.127963
H26	H	0.966700	0.519900	0.390100	0.129887
H27	H	0.090300	0.314500	0.471800	0.129887
H28	H	0.712100	0.475200	0.494100	0.106648
H29	H	0.179400	0.982800	0.273300	0.318728
H30	H	0.157100	0.325400	0.389400	0.299665
H31	H	0.190500	0.426300	0.380200	0.299665
H32	H	0.264100	0.379400	0.415800	0.299665
H33	H	0.112900	0.405200	0.812400	0.127963
H34	H	0.533300	0.019900	0.890100	0.129887
H35	H	0.409700	0.814500	0.971800	0.129887
H36	H	0.787900	0.975200	0.994100	0.106648
H37	H	0.320600	0.482800	0.773300	0.318728
H38	H	0.342900	0.825400	0.889400	0.299665
H39	H	0.309500	0.926300	0.880200	0.299665
H40	H	0.235900	0.879400	0.915800	0.299665
H41	H	0.387100	0.905200	0.187600	0.127963
H42	H	0.966700	0.519900	0.109900	0.129887
H43	H	0.090300	0.314500	0.028200	0.129887
H44	H	0.712100	0.475200	0.005900	0.106648
H45	H	0.179400	0.982800	0.226700	0.318728
H46	H	0.157100	0.325400	0.110600	0.299665
H47	H	0.190500	0.426300	0.119800	0.299665
H48	H	0.264100	0.379400	0.084200	0.299665
H49	H	0.887100	0.594800	0.312400	0.127963
H50	H	0.466700	0.980100	0.390100	0.129887
H51	H	0.590300	0.185500	0.471800	0.129887
H52	H	0.212100	0.024800	0.494100	0.106648
H53	H	0.679400	0.517200	0.273300	0.318728
H54	H	0.657100	0.174600	0.389400	0.299665
H55	H	0.690500	0.073700	0.380200	0.299665
H56	H	0.764100	0.120600	0.415800	0.299665
H57	H	0.612900	0.094800	0.687600	0.127963
H58	H	0.033300	0.480100	0.609900	0.129887
H59	H	0.909700	0.685500	0.528200	0.129887
H60	H	0.287900	0.524800	0.505900	0.106648
H61	H	0.820600	0.017200	0.726700	0.318728
H62	H	0.842900	0.674600	0.610600	0.299665
H63	H	0.809500	0.573700	0.619800	0.299665
H64	H	0.735900	0.620600	0.584200	0.299665
H65	H	0.250300	0.708400	0.250000	0.106648
H66	H	0.249700	0.208400	0.750000	0.106648
H67	H	0.749700	0.291600	0.750000	0.106648
H68	H	0.750300	0.791600	0.250000	0.106648
C1	C	0.158300	0.685400	0.172500	0.732469
C2	C	0.080400	0.657800	0.212590	-0.105814
C3	C	0.936300	0.610200	0.212700	-0.130712
C4	C	0.207500	0.915700	0.073280	0.727815
C5	C	0.321500	0.991200	0.059920	-0.094973
C6	C	0.448300	0.013600	0.085190	-0.155537
C7	C	0.545800	0.087000	0.072480	0.199023
C8	C	0.523000	0.135800	0.035850	-0.143678
C9	C	0.398400	0.110900	0.009950	-0.099138
C10	C	0.297600	0.040200	0.022530	-0.008391
C11	C	0.375100	0.161800	0.969350	0.732469
C12	C	0.341700	0.185400	0.827500	0.732469
C13	C	0.419600	0.157800	0.787410	-0.105814
C14	C	0.563700	0.110200	0.787300	-0.130712
C15	C	0.292500	0.415700	0.926720	0.727815
C16	C	0.178500	0.491200	0.940080	-0.094973
C17	C	0.051700	0.513600	0.914810	-0.155537
C18	C	0.954200	0.587000	0.927520	0.199023
C19	C	0.977000	0.635800	0.964150	-0.143678
C20	C	0.101600	0.610900	0.990050	-0.099138
C21	C	0.202400	0.540200	0.977470	-0.008391
C22	C	0.124900	0.661800	0.030650	0.732469
C23	C	0.841700	0.314600	0.672500	0.732469
C24	C	0.919600	0.342200	0.712590	-0.105814
C25	C	0.063700	0.389800	0.712700	-0.130712
C26	C	0.792500	0.084300	0.573280	0.727815
C27	C	0.678500	0.008800	0.559920	-0.094973
C28	C	0.551700	0.986400	0.585190	-0.155537
C29	C	0.454200	0.913000	0.572480	0.199023
C30	C	0.477000	0.864200	0.535850	-0.143678
C31	C	0.601600	0.889100	0.509950	-0.099138
C32	C	0.702400	0.959800	0.522530	-0.008391
C33	C	0.624900	0.838200	0.469350	0.732469
C34	C	0.658300	0.814600	0.327500	0.732469
C35	C	0.580400	0.842200	0.287410	-0.105814
C36	C	0.436300	0.889800	0.287300	-0.130712
C37	C	0.707500	0.584300	0.426720	0.727815
C38	C	0.821500	0.508800	0.440080	-0.094973
C39	C	0.948300	0.486400	0.414810	-0.155537
C40	C	0.045800	0.413000	0.427520	0.199023
C41	C	0.023000	0.364200	0.464150	-0.143678
C42	C	0.898400	0.389100	0.490050	-0.099138
C43	C	0.797600	0.459800	0.477470	-0.008391
C44	C	0.875100	0.338200	0.530650	0.732469
C45	C	0.841700	0.314600	0.827500	0.732469
C46	C	0.919600	0.342200	0.787410	-0.105814
C47	C	0.063700	0.389800	0.787300	-0.130712
C48	C	0.792500	0.084300	0.926720	0.727815
C49	C	0.678500	0.008800	0.940080	-0.094973
C50	C	0.551700	0.986400	0.914810	-0.155537
C51	C	0.454200	0.913000	0.927520	0.199023
C52	C	0.477000	0.864200	0.964150	-0.143678
C53	C	0.601600	0.889100	0.990050	-0.099138
C54	C	0.702400	0.959800	0.977470	-0.008391
C55	C	0.624900	0.838200	0.030650	0.732469
C56	C	0.658300	0.814600	0.172500	0.732469
C57	C	0.580400	0.842200	0.212590	-0.105814
C58	C	0.436300	0.889800	0.212700	-0.130712
C59	C	0.707500	0.584300	0.073280	0.727815
C60	C	0.821500	0.508800	0.059920	-0.094973
C61	C	0.948300	0.486400	0.085190	-0.155537
C62	C	0.045800	0.413000	0.072480	0.199023
C63	C	0.023000	0.364200	0.035850	-0.143678
C64	C	0.898400	0.389100	0.009950	-0.099138
C65	C	0.797600	0.459800	0.022530	-0.008391
C66	C	0.875100	0.338200	0.969350	0.732469
C67	C	0.158300	0.685400	0.327500	0.732469
C68	C	0.080400	0.657800	0.287410	-0.105814
C69	C	0.936300	0.610200	0.287300	-0.130712
C70	C	0.207500	0.915700	0.426720	0.727815
C71	C	0.321500	0.991200	0.440080	-0.094973
C72	C	0.448300	0.013600	0.414810	-0.155537
C73	C	0.545800	0.087000	0.427520	0.199023
C74	C	0.523000	0.135800	0.464150	-0.143678
C75	C	0.398400	0.110900	0.490050	-0.099138
C76	C	0.297600	0.040200	0.477470	-0.008391
C77	C	0.375100	0.161800	0.530650	0.732469
C78	C	0.341700	0.185400	0.672500	0.732469
C79	C	0.419600	0.157800	0.712590	-0.105814
C80	C	0.563700	0.110200	0.712700	-0.130712
C81	C	0.292500	0.415700	0.573280	0.727815
C82	C	0.178500	0.491200	0.559920	-0.094973
C83	C	0.051700	0.513600	0.585190	-0.155537
C84	C	0.954200	0.587000	0.572480	0.199023
C85	C	0.977000	0.635800	0.535850	-0.143678
C86	C	0.101600	0.610900	0.509950	-0.099138
C87	C	0.202400	0.540200	0.522530	-0.008391
C88	C	0.124900	0.661800	0.469350	0.732469
C89	C	0.152500	0.679300	0.250000	0.001260
C90	C	0.869000	0.586800	0.250000	0.259928
C91	C	0.347500	0.179300	0.750000	0.001260
C92	C	0.631000	0.086800	0.750000	0.259928
C93	C	0.847500	0.320700	0.750000	0.001260
C94	C	0.131000	0.413200	0.750000	0.259928
C95	C	0.652500	0.820700	0.250000	0.001260
C96	C	0.369000	0.913200	0.250000	0.259928
N1	N	0.958300	0.972600	0.161800	0.821929
N2	N	0.677500	0.117000	0.099480	-0.608705
N3	N	0.541700	0.472600	0.838200	0.821929
N4	N	0.822500	0.617000	0.900520	-0.608705
N5	N	0.041700	0.027400	0.661800	0.821929
N6	N	0.322500	0.883000	0.599480	-0.608705
N7	N	0.458300	0.527400	0.338200	0.821929
N8	N	0.177500	0.383000	0.400520	-0.608705
N9	N	0.041700	0.027400	0.838200	0.821929
N10	N	0.322500	0.883000	0.900520	-0.608705
N11	N	0.458300	0.527400	0.161800	0.821929
N12	N	0.177500	0.383000	0.099480	-0.608705
N13	N	0.958300	0.972600	0.338200	0.821929
N14	N	0.677500	0.117000	0.400520	-0.608705
N15	N	0.541700	0.472600	0.661800	0.821929
N16	N	0.822500	0.617000	0.599480	-0.608705
N17	N	0.722200	0.533500	0.250000	-0.691864
N18	N	0.777800	0.033500	0.750000	-0.691864
N19	N	0.277800	0.466500	0.750000	-0.691864
N20	N	0.222200	0.966500	0.250000	-0.691864
O1	O	0.247400	0.842900	0.095050	-0.797421
O2	O	0.065800	0.928700	0.063510	-0.617516
O3	O	0.080200	0.680000	0.138460	-0.673839
O4	O	0.296500	0.711600	0.173480	-0.673839
O5	O	0.480000	0.221400	0.957990	-0.673839
O6	O	0.257100	0.140900	0.948060	-0.673839
O7	O	0.853400	0.968300	0.134370	-0.560094
O8	O	0.059900	0.909700	0.163700	-0.560094
O9	O	0.953700	0.038600	0.188700	-0.373906
O10	O	0.252600	0.342900	0.904950	-0.797421
O11	O	0.434200	0.428700	0.936490	-0.617516
O12	O	0.419800	0.180000	0.861540	-0.673839
O13	O	0.203500	0.211600	0.826520	-0.673839
O14	O	0.020000	0.721400	0.042010	-0.673839
O15	O	0.242900	0.640900	0.051940	-0.673839
O16	O	0.646600	0.468300	0.865630	-0.560094
O17	O	0.440100	0.409700	0.836300	-0.560094
O18	O	0.546300	0.538600	0.811300	-0.373906
O19	O	0.752600	0.157100	0.595050	-0.797421
O20	O	0.934200	0.071300	0.563510	-0.617516
O21	O	0.919800	0.320000	0.638460	-0.673839
O22	O	0.703500	0.288400	0.673480	-0.673839
O23	O	0.520000	0.778600	0.457990	-0.673839
O24	O	0.742900	0.859100	0.448060	-0.673839
O25	O	0.146600	0.031700	0.634370	-0.560094
O26	O	0.940100	0.090300	0.663700	-0.560094
O27	O	0.046300	0.961400	0.688700	-0.373906
O28	O	0.747400	0.657100	0.404950	-0.797421
O29	O	0.565800	0.571300	0.436490	-0.617516
O30	O	0.580200	0.820000	0.361540	-0.673839
O31	O	0.796500	0.788400	0.326520	-0.673839
O32	O	0.980000	0.278600	0.542010	-0.673839
O33	O	0.757100	0.359100	0.551940	-0.673839
O34	O	0.353400	0.531700	0.365630	-0.560094
O35	O	0.559900	0.590300	0.336300	-0.560094
O36	O	0.453700	0.461400	0.311300	-0.373906
O37	O	0.752600	0.157100	0.904950	-0.797421
O38	O	0.934200	0.071300	0.936490	-0.617516
O39	O	0.919800	0.320000	0.861540	-0.673839
O40	O	0.703500	0.288400	0.826520	-0.673839
O41	O	0.520000	0.778600	0.042010	-0.673839
O42	O	0.742900	0.859100	0.051940	-0.673839
O43	O	0.146600	0.031700	0.865630	-0.560094
O44	O	0.940100	0.090300	0.836300	-0.560094
O45	O	0.046300	0.961400	0.811300	-0.373906
O46	O	0.747400	0.657100	0.095050	-0.797421
O47	O	0.565800	0.571300	0.063510	-0.617516
O48	O	0.580200	0.820000	0.138460	-0.673839
O49	O	0.796500	0.788400	0.173480	-0.673839
O50	O	0.980000	0.278600	0.957990	-0.673839
O51	O	0.757100	0.359100	0.948060	-0.673839
O52	O	0.353400	0.531700	0.134370	-0.560094
O53	O	0.559900	0.590300	0.163700	-0.560094
O54	O	0.453700	0.461400	0.188700	-0.373906
O55	O	0.247400	0.842900	0.404950	-0.797421
O56	O	0.065800	0.928700	0.436490	-0.617516
O57	O	0.080200	0.680000	0.361540	-0.673839
O58	O	0.296500	0.711600	0.326520	-0.673839
O59	O	0.480000	0.221400	0.542010	-0.673839
O60	O	0.257100	0.140900	0.551940	-0.673839
O61	O	0.853400	0.968300	0.365630	-0.560094
O62	O	0.059900	0.909700	0.336300	-0.560094
O63	O	0.953700	0.038600	0.311300	-0.373906
O64	O	0.252600	0.342900	0.595050	-0.797421
O65	O	0.434200	0.428700	0.563510	-0.617516
O66	O	0.419800	0.180000	0.638460	-0.673839
O67	O	0.203500	0.211600	0.673480	-0.673839
O68	O	0.020000	0.721400	0.457990	-0.673839
O69	O	0.242900	0.640900	0.448060	-0.673839
O70	O	0.646600	0.468300	0.634370	-0.560094
O71	O	0.440100	0.409700	0.663700	-0.560094
O72	O	0.546300	0.538600	0.688700	-0.373906
