data_ZARZAV_clean_PM
_symmetry_space_group_name_H-M	'P1'
_cell_length_a	11.752700
_cell_length_b	12.482900
_cell_length_c	16.608900
_cell_angle_alpha	90.000000
_cell_angle_beta	90.477002
_cell_angle_gamma	90.000000
_symmetry_Int_Tables_number 1

loop_
_symmetry_equiv_pos_as_xyz
'x,y,z'

loop_
_atom_site_label
_atom_site_type_symbol
_atom_site_fract_x
_atom_site_fract_y
_atom_site_fract_z
_atom_site_charge
Zn1	Zn	0.648650	0.751970	0.749470	0.865689
Zn2	Zn	0.351350	0.248030	0.250530	0.865689
Zn3	Zn	0.851350	0.251970	0.750530	0.865689
Zn4	Zn	0.148650	0.748030	0.249470	0.865689
H1	H	0.735700	0.739400	0.577300	0.086954
H2	H	0.819500	0.923900	0.757000	0.086954
H3	H	0.878600	0.807300	0.500700	0.135427
H4	H	0.959200	0.002800	0.683700	0.135427
H5	H	0.077100	0.005100	0.566400	0.098663
H6	H	0.070700	0.907800	0.506600	0.098663
H7	H	0.075000	0.484800	0.933900	0.098663
H8	H	0.078400	0.586100	0.990000	0.098663
H9	H	0.963500	0.500100	0.812100	0.135427
H10	H	0.886800	0.692000	0.996800	0.135427
H11	H	0.823300	0.583100	0.738200	0.086954
H12	H	0.746100	0.766900	0.918800	0.086954
H13	H	0.264300	0.260600	0.422700	0.086954
H14	H	0.180500	0.076100	0.243000	0.086954
H15	H	0.121400	0.192700	0.499300	0.135427
H16	H	0.040800	0.997200	0.316300	0.135427
H17	H	0.922900	0.994900	0.433600	0.098663
H18	H	0.929300	0.092200	0.493400	0.098663
H19	H	0.925000	0.515200	0.066100	0.098663
H20	H	0.921600	0.413900	0.010000	0.098663
H21	H	0.036500	0.499900	0.187900	0.135427
H22	H	0.113200	0.308000	0.003200	0.135427
H23	H	0.176700	0.416900	0.261800	0.086954
H24	H	0.253900	0.233100	0.081200	0.086954
H25	H	0.764300	0.239400	0.922700	0.086954
H26	H	0.680500	0.423900	0.743000	0.086954
H27	H	0.621400	0.307300	0.999300	0.135427
H28	H	0.540800	0.502800	0.816300	0.135427
H29	H	0.422900	0.505100	0.933600	0.098663
H30	H	0.429300	0.407800	0.993400	0.098663
H31	H	0.425000	0.984800	0.566100	0.098663
H32	H	0.421600	0.086100	0.510000	0.098663
H33	H	0.536500	0.000100	0.687900	0.135427
H34	H	0.613200	0.192000	0.503200	0.135427
H35	H	0.676700	0.083100	0.761800	0.086954
H36	H	0.753900	0.266900	0.581200	0.086954
H37	H	0.235700	0.760600	0.077300	0.086954
H38	H	0.319500	0.576100	0.257000	0.086954
H39	H	0.378600	0.692700	0.000700	0.135427
H40	H	0.459200	0.497200	0.183700	0.135427
H41	H	0.577100	0.494900	0.066400	0.098663
H42	H	0.570700	0.592200	0.006600	0.098663
H43	H	0.575000	0.015200	0.433900	0.098663
H44	H	0.578400	0.913900	0.490000	0.098663
H45	H	0.463500	0.999900	0.312100	0.135427
H46	H	0.386800	0.808000	0.496800	0.135427
H47	H	0.323300	0.916900	0.238200	0.086954
H48	H	0.246100	0.733100	0.418800	0.086954
C1	C	0.533300	0.660900	0.627500	0.669915
C2	C	0.514700	0.575100	0.563900	-0.249740
C3	C	0.412900	0.564900	0.522300	0.183032
C4	C	0.398300	0.492200	0.460500	0.183032
C5	C	0.524400	0.975800	0.078100	0.183032
C6	C	0.541800	0.901200	0.018800	0.183032
C7	C	0.517600	0.923100	0.938000	-0.249740
C8	C	0.537100	0.839700	0.872800	0.669915
C9	C	0.782600	0.792000	0.599400	0.190421
C10	C	0.831000	0.901000	0.704500	0.190421
C11	C	0.867500	0.833200	0.552600	-0.219976
C12	C	0.915800	0.948100	0.661100	-0.219976
C13	C	0.936500	0.913400	0.582700	0.157932
C14	C	0.026300	0.963500	0.532300	-0.163177
C15	C	0.028800	0.532300	0.966400	-0.163177
C16	C	0.941000	0.585700	0.914000	0.157932
C17	C	0.920400	0.554300	0.835200	-0.219976
C18	C	0.874600	0.667400	0.944600	-0.219976
C19	C	0.835000	0.604100	0.791300	0.190421
C20	C	0.790100	0.712300	0.897100	0.190421
C21	C	0.466700	0.339100	0.372500	0.669915
C22	C	0.485300	0.424900	0.436100	-0.249740
C23	C	0.587100	0.435100	0.477700	0.183032
C24	C	0.601700	0.507800	0.539500	0.183032
C25	C	0.475600	0.024200	0.921900	0.183032
C26	C	0.458200	0.098800	0.981200	0.183032
C27	C	0.482400	0.076900	0.062000	-0.249740
C28	C	0.462900	0.160300	0.127200	0.669915
C29	C	0.217400	0.208000	0.400600	0.190421
C30	C	0.169000	0.099000	0.295500	0.190421
C31	C	0.132500	0.166800	0.447400	-0.219976
C32	C	0.084200	0.051900	0.338900	-0.219976
C33	C	0.063500	0.086600	0.417300	0.157932
C34	C	0.973700	0.036500	0.467700	-0.163177
C35	C	0.971200	0.467700	0.033600	-0.163177
C36	C	0.059000	0.414300	0.086000	0.157932
C37	C	0.079600	0.445700	0.164800	-0.219976
C38	C	0.125400	0.332600	0.055400	-0.219976
C39	C	0.165000	0.395900	0.208700	0.190421
C40	C	0.209900	0.287700	0.102900	0.190421
C41	C	0.966700	0.160900	0.872500	0.669915
C42	C	0.985300	0.075100	0.936100	-0.249740
C43	C	0.087100	0.064900	0.977700	0.183032
C44	C	0.101700	0.992200	0.039500	0.183032
C45	C	0.975600	0.475800	0.421900	0.183032
C46	C	0.958200	0.401200	0.481200	0.183032
C47	C	0.982400	0.423100	0.562000	-0.249740
C48	C	0.962900	0.339700	0.627200	0.669915
C49	C	0.717400	0.292000	0.900600	0.190421
C50	C	0.669000	0.401000	0.795500	0.190421
C51	C	0.632500	0.333200	0.947400	-0.219976
C52	C	0.584200	0.448100	0.838900	-0.219976
C53	C	0.563500	0.413400	0.917300	0.157932
C54	C	0.473700	0.463500	0.967700	-0.163177
C55	C	0.471200	0.032300	0.533600	-0.163177
C56	C	0.559000	0.085700	0.586000	0.157932
C57	C	0.579600	0.054300	0.664800	-0.219976
C58	C	0.625400	0.167400	0.555400	-0.219976
C59	C	0.665000	0.104100	0.708700	0.190421
C60	C	0.709900	0.212300	0.602900	0.190421
C61	C	0.033300	0.839100	0.127500	0.669915
C62	C	0.014700	0.924900	0.063900	-0.249740
C63	C	0.912900	0.935100	0.022300	0.183032
C64	C	0.898300	0.007800	0.960500	0.183032
C65	C	0.024400	0.524200	0.578100	0.183032
C66	C	0.041800	0.598800	0.518800	0.183032
C67	C	0.017600	0.576900	0.438000	-0.249740
C68	C	0.037100	0.660300	0.372800	0.669915
C69	C	0.282600	0.708000	0.099400	0.190421
C70	C	0.331000	0.599000	0.204500	0.190421
C71	C	0.367500	0.666800	0.052600	-0.219976
C72	C	0.415800	0.551900	0.161100	-0.219976
C73	C	0.436500	0.586600	0.082700	0.157932
C74	C	0.526300	0.536500	0.032300	-0.163177
C75	C	0.528800	0.967700	0.466400	-0.163177
C76	C	0.441000	0.914300	0.414000	0.157932
C77	C	0.420400	0.945700	0.335200	-0.219976
C78	C	0.374600	0.832600	0.444600	-0.219976
C79	C	0.335000	0.895900	0.291300	0.190421
C80	C	0.290100	0.787700	0.397100	0.190421
N1	N	0.763600	0.823500	0.675100	-0.333055
N2	N	0.768500	0.680900	0.821200	-0.333055
N3	N	0.236400	0.176500	0.324900	-0.333055
N4	N	0.231500	0.319100	0.178800	-0.333055
N5	N	0.736400	0.323500	0.824900	-0.333055
N6	N	0.731500	0.180900	0.678800	-0.333055
N7	N	0.263600	0.676500	0.175100	-0.333055
N8	N	0.268500	0.819100	0.321200	-0.333055
O1	O	0.587400	0.629300	0.690700	-0.599059
O2	O	0.501200	0.753000	0.614600	-0.580145
O3	O	0.593200	0.872800	0.812470	-0.599059
O4	O	0.504300	0.747500	0.883020	-0.580145
O5	O	0.412600	0.370700	0.309300	-0.599059
O6	O	0.498800	0.247000	0.385400	-0.580145
O7	O	0.406800	0.127200	0.187530	-0.599059
O8	O	0.495700	0.252500	0.116980	-0.580145
O9	O	0.912600	0.129300	0.809300	-0.599059
O10	O	0.998800	0.253000	0.885400	-0.580145
O11	O	0.906800	0.372800	0.687530	-0.599059
O12	O	0.995700	0.247500	0.616980	-0.580145
O13	O	0.087400	0.870700	0.190700	-0.599059
O14	O	0.001200	0.747000	0.114600	-0.580145
O15	O	0.093200	0.627200	0.312470	-0.599059
O16	O	0.004300	0.752500	0.383020	-0.580145
F1	F	0.322200	0.622700	0.544640	-0.142278
F2	F	0.294500	0.486400	0.425580	-0.142278
F3	F	0.551400	0.947600	0.154290	-0.142278
F4	F	0.586600	0.806100	0.039000	-0.142278
F5	F	0.677800	0.377300	0.455360	-0.142278
F6	F	0.705500	0.513600	0.574420	-0.142278
F7	F	0.448600	0.052400	0.845710	-0.142278
F8	F	0.413400	0.193900	0.961000	-0.142278
F9	F	0.177800	0.122700	0.955360	-0.142278
F10	F	0.205500	0.986400	0.074420	-0.142278
F11	F	0.948600	0.447600	0.345710	-0.142278
F12	F	0.913400	0.306100	0.461000	-0.142278
F13	F	0.822200	0.877300	0.044640	-0.142278
F14	F	0.794500	0.013600	0.925580	-0.142278
F15	F	0.051400	0.552400	0.654290	-0.142278
F16	F	0.086600	0.693900	0.539000	-0.142278
