data_ZIKJIO_clean_PM
_symmetry_space_group_name_H-M	'P1'
_cell_length_a	11.426900
_cell_length_b	11.426900
_cell_length_c	18.873100
_cell_angle_alpha	94.758402
_cell_angle_beta	94.758402
_cell_angle_gamma	96.721901
_symmetry_Int_Tables_number 1

loop_
_symmetry_equiv_pos_as_xyz
'x,y,z'

loop_
_atom_site_label
_atom_site_type_symbol
_atom_site_fract_x
_atom_site_fract_y
_atom_site_fract_z
_atom_site_charge
Cu1	Cu	0.971810	0.095500	0.472050	0.875406
Cu2	Cu	0.904500	0.028190	0.027950	0.875406
Cu3	Cu	0.028190	0.904500	0.527950	0.875406
Cu4	Cu	0.095500	0.971810	0.972050	0.875406
H1	H	0.770600	0.215000	0.641700	0.119880
H2	H	0.305800	0.324200	0.530700	0.099439
H3	H	0.484400	0.425600	0.585900	0.105047
H4	H	0.529900	0.149900	0.701700	0.105047
H5	H	0.625100	0.449300	0.697500	0.101532
H6	H	0.699400	0.365800	0.651500	0.101532
H7	H	0.354100	0.046900	0.645600	0.099439
H8	H	0.785000	0.229400	0.858300	0.119880
H9	H	0.675800	0.694200	0.969300	0.099439
H10	H	0.574400	0.515600	0.914100	0.105047
H11	H	0.850100	0.470100	0.798300	0.105047
H12	H	0.550700	0.374900	0.802500	0.101532
H13	H	0.634200	0.300600	0.848500	0.101532
H14	H	0.953100	0.645900	0.854400	0.099439
H15	H	0.229400	0.785000	0.358300	0.119880
H16	H	0.694200	0.675800	0.469300	0.099439
H17	H	0.515600	0.574400	0.414100	0.105047
H18	H	0.470100	0.850100	0.298300	0.105047
H19	H	0.374900	0.550700	0.302500	0.101532
H20	H	0.300600	0.634200	0.348500	0.101532
H21	H	0.645900	0.953100	0.354400	0.099439
H22	H	0.215000	0.770600	0.141700	0.119880
H23	H	0.324200	0.305800	0.030700	0.099439
H24	H	0.425600	0.484400	0.085900	0.105047
H25	H	0.149900	0.529900	0.201700	0.105047
H26	H	0.449300	0.625100	0.197500	0.101532
H27	H	0.365800	0.699400	0.151500	0.101532
H28	H	0.046900	0.354100	0.145600	0.099439
H29	H	0.983600	0.016400	0.750000	0.101065
H30	H	0.016400	0.983600	0.250000	0.101065
C1	C	0.800620	0.190680	0.685800	-0.129629
C2	C	0.881490	0.109470	0.686000	-0.120334
C3	C	0.197270	0.109590	0.549920	0.663294
C4	C	0.523890	0.297790	0.649910	0.041283
C5	C	0.311350	0.176070	0.583530	-0.126218
C6	C	0.351040	0.288520	0.565520	-0.035681
C7	C	0.457340	0.349040	0.598540	-0.150897
C8	C	0.484610	0.185590	0.666960	-0.150897
C9	C	0.638090	0.366050	0.685690	-0.015007
C10	C	0.379580	0.124460	0.633860	-0.035681
C11	C	0.921700	0.063660	0.616770	0.659936
C12	C	0.809320	0.199380	0.814200	-0.129629
C13	C	0.890530	0.118510	0.814000	-0.120334
C14	C	0.890410	0.802730	0.950080	0.663294
C15	C	0.702210	0.476110	0.850090	0.041283
C16	C	0.823930	0.688650	0.916470	-0.126218
C17	C	0.711480	0.648960	0.934480	-0.035681
C18	C	0.650960	0.542660	0.901460	-0.150897
C19	C	0.814410	0.515390	0.833040	-0.150897
C20	C	0.633950	0.361910	0.814310	-0.015007
C21	C	0.875540	0.620420	0.866140	-0.035681
C22	C	0.936340	0.078300	0.883230	0.659936
C23	C	0.199380	0.809320	0.314200	-0.129629
C24	C	0.118510	0.890530	0.314000	-0.120334
C25	C	0.802730	0.890410	0.450080	0.663294
C26	C	0.476110	0.702210	0.350090	0.041283
C27	C	0.688650	0.823930	0.416470	-0.126218
C28	C	0.648960	0.711480	0.434480	-0.035681
C29	C	0.542660	0.650960	0.401460	-0.150897
C30	C	0.515390	0.814410	0.333040	-0.150897
C31	C	0.361910	0.633950	0.314310	-0.015007
C32	C	0.620420	0.875540	0.366140	-0.035681
C33	C	0.078300	0.936340	0.383230	0.659936
C34	C	0.190680	0.800620	0.185800	-0.129629
C35	C	0.109470	0.881490	0.186000	-0.120334
C36	C	0.109590	0.197270	0.049920	0.663294
C37	C	0.297790	0.523890	0.149910	0.041283
C38	C	0.176070	0.311350	0.083530	-0.126218
C39	C	0.288520	0.351040	0.065520	-0.035681
C40	C	0.349040	0.457340	0.098540	-0.150897
C41	C	0.185590	0.484610	0.166960	-0.150897
C42	C	0.366050	0.638090	0.185690	-0.015007
C43	C	0.124460	0.379580	0.133860	-0.035681
C44	C	0.063660	0.921700	0.116770	0.659936
C45	C	0.762160	0.237840	0.750000	0.146910
C46	C	0.927970	0.072030	0.750000	-0.037124
C47	C	0.237840	0.762160	0.250000	0.146910
C48	C	0.072030	0.927970	0.250000	-0.037124
N1	N	0.681400	0.318600	0.750000	-0.104645
N2	N	0.318600	0.681400	0.250000	-0.104645
O1	O	0.912310	0.127650	0.565970	-0.565148
O2	O	0.130850	0.166830	0.512600	-0.565148
O3	O	0.176320	0.003160	0.561350	-0.565148
O4	O	0.962850	0.966310	0.614690	-0.565148
O5	O	0.872350	0.087690	0.934030	-0.565148
O6	O	0.833170	0.869150	0.987400	-0.565148
O7	O	0.996840	0.823680	0.938650	-0.565148
O8	O	0.033690	0.037150	0.885310	-0.565148
O9	O	0.087690	0.872350	0.434030	-0.565148
O10	O	0.869150	0.833170	0.487400	-0.565148
O11	O	0.823680	0.996840	0.438650	-0.565148
O12	O	0.037150	0.033690	0.385310	-0.565148
O13	O	0.127650	0.912310	0.065970	-0.565148
O14	O	0.166830	0.130850	0.012600	-0.565148
O15	O	0.003160	0.176320	0.061350	-0.565148
O16	O	0.966310	0.962850	0.114690	-0.565148
