data_ZURQOS_clean_PM
_symmetry_space_group_name_H-M	'P1'
_cell_length_a	6.960000
_cell_length_b	7.718000
_cell_length_c	9.693000
_cell_angle_alpha	90.609999
_cell_angle_beta	91.719996
_cell_angle_gamma	90.169997
_symmetry_Int_Tables_number 1

loop_
_symmetry_equiv_pos_as_xyz
'x,y,z'

loop_
_atom_site_label
_atom_site_type_symbol
_atom_site_fract_x
_atom_site_fract_y
_atom_site_fract_z
_atom_site_charge
Cd1	Cd	0.000000	0.000000	0.000000	1.147225
Ni1	Ni	0.500000	0.500000	0.000000	-0.014538
H1	H	0.959000	0.910550	0.280260	0.243440
H2	H	0.663010	0.809240	0.206620	0.089938
H3	H	0.595190	0.024720	0.157130	0.089938
H4	H	0.811720	0.848080	0.489800	0.112043
H5	H	0.346690	0.111920	0.287130	0.112043
H6	H	0.041000	0.089450	0.719740	0.243440
H7	H	0.336990	0.190760	0.793380	0.089938
H8	H	0.404810	0.975280	0.842870	0.089938
H9	H	0.188280	0.151920	0.510200	0.112043
H10	H	0.653310	0.888080	0.712870	0.112043
C1	C	0.689600	0.660300	0.958200	0.078949
C2	C	0.335600	0.682700	0.032600	0.078949
C3	C	0.677100	0.947700	0.233300	0.063386
C4	C	0.588800	0.976500	0.373400	0.057590
C5	C	0.675500	0.914300	0.493500	-0.097757
C6	C	0.414200	0.062400	0.380400	-0.097757
C7	C	0.310400	0.339700	0.041800	0.078949
C8	C	0.664400	0.317300	0.967400	0.078949
C9	C	0.322900	0.052300	0.766700	0.063386
C10	C	0.411200	0.023500	0.626600	0.057590
C11	C	0.324500	0.085700	0.506500	-0.097757
C12	C	0.585800	0.937600	0.619600	-0.097757
N1	N	0.801700	0.763400	0.937000	-0.369565
N2	N	0.236900	0.798000	0.051300	-0.369565
N3	N	0.881600	0.995800	0.225300	-0.557974
N4	N	0.198300	0.236600	0.063000	-0.369565
N5	N	0.763100	0.202000	0.948700	-0.369565
N6	N	0.118400	0.004200	0.774700	-0.557974
